<?xml version="1.0" ?>
<routes>
    <flow id="flow6_bin0" type="motorbike" from="HQC_J2_J3" begin="0.0" end="72.0" number="1"/>
    <flow id="flow9_bin0" type="car" from="PVB_J6_J3" begin="0.0" end="72.0" number="1"/>
    <flow id="flow10_bin0" type="motorbike" from="PVB_J6_J3" begin="0.0" end="72.0" number="4"/>
    <flow id="flow13_bin0" type="car" from="PVB_J0_J3" begin="0.0" end="72.0" number="1"/>
    <flow id="flow14_bin0" type="motorbike" from="PVB_J0_J3" begin="0.0" end="72.0" number="2"/>
    <flow id="flow6_bin1" type="motorbike" from="HQC_J2_J3" begin="72.0" end="144.0" number="1"/>
    <flow id="flow9_bin1" type="car" from="PVB_J6_J3" begin="72.0" end="144.0" number="3"/>
    <flow id="flow10_bin1" type="motorbike" from="PVB_J6_J3" begin="72.0" end="144.0" number="9"/>
    <flow id="flow13_bin1" type="car" from="PVB_J0_J3" begin="72.0" end="144.0" number="1"/>
    <flow id="flow14_bin1" type="motorbike" from="PVB_J0_J3" begin="72.0" end="144.0" number="4"/>
    <flow id="flow6_bin2" type="motorbike" from="HQC_J2_J3" begin="144.0" end="216.0" number="1"/>
    <flow id="flow9_bin2" type="car" from="PVB_J6_J3" begin="144.0" end="216.0" number="1"/>
    <flow id="flow10_bin2" type="motorbike" from="PVB_J6_J3" begin="144.0" end="216.0" number="2"/>
    <flow id="flow14_bin2" type="motorbike" from="PVB_J0_J3" begin="144.0" end="216.0" number="9"/>
    <flow id="flow1_bin3" type="car" from="HQC_J4_J3" begin="216.0" end="288.0" number="1"/>
    <flow id="flow2_bin3" type="motorbike" from="HQC_J4_J3" begin="216.0" end="288.0" number="2"/>
    <flow id="flow5_bin3" type="car" from="HQC_J2_J3" begin="216.0" end="288.0" number="1"/>
    <flow id="flow6_bin3" type="motorbike" from="HQC_J2_J3" begin="216.0" end="288.0" number="5"/>
    <flow id="flow9_bin3" type="car" from="PVB_J6_J3" begin="216.0" end="288.0" number="1"/>
    <flow id="flow10_bin3" type="motorbike" from="PVB_J6_J3" begin="216.0" end="288.0" number="10"/>
    <flow id="flow13_bin3" type="car" from="PVB_J0_J3" begin="216.0" end="288.0" number="4"/>
    <flow id="flow14_bin3" type="motorbike" from="PVB_J0_J3" begin="216.0" end="288.0" number="16"/>
    <flow id="flow1_bin4" type="car" from="HQC_J4_J3" begin="288.0" end="360.0" number="1"/>
    <flow id="flow2_bin4" type="motorbike" from="HQC_J4_J3" begin="288.0" end="360.0" number="2"/>
    <flow id="flow5_bin4" type="car" from="HQC_J2_J3" begin="288.0" end="360.0" number="1"/>
    <flow id="flow6_bin4" type="motorbike" from="HQC_J2_J3" begin="288.0" end="360.0" number="4"/>
    <flow id="flow7_bin4" type="bus" from="HQC_J2_J3" begin="288.0" end="360.0" number="1"/>
    <flow id="flow9_bin4" type="car" from="PVB_J6_J3" begin="288.0" end="360.0" number="5"/>
    <flow id="flow10_bin4" type="motorbike" from="PVB_J6_J3" begin="288.0" end="360.0" number="22"/>
    <flow id="flow13_bin4" type="car" from="PVB_J0_J3" begin="288.0" end="360.0" number="3"/>
    <flow id="flow14_bin4" type="motorbike" from="PVB_J0_J3" begin="288.0" end="360.0" number="17"/>
    <flow id="flow2_bin5" type="motorbike" from="HQC_J4_J3" begin="360.0" end="432.0" number="6"/>
    <flow id="flow5_bin5" type="car" from="HQC_J2_J3" begin="360.0" end="432.0" number="1"/>
    <flow id="flow6_bin5" type="motorbike" from="HQC_J2_J3" begin="360.0" end="432.0" number="7"/>
    <flow id="flow9_bin5" type="car" from="PVB_J6_J3" begin="360.0" end="432.0" number="5"/>
    <flow id="flow10_bin5" type="motorbike" from="PVB_J6_J3" begin="360.0" end="432.0" number="24"/>
    <flow id="flow13_bin5" type="car" from="PVB_J0_J3" begin="360.0" end="432.0" number="4"/>
    <flow id="flow14_bin5" type="motorbike" from="PVB_J0_J3" begin="360.0" end="432.0" number="21"/>
    <flow id="flow1_bin6" type="car" from="HQC_J4_J3" begin="432.0" end="504.0" number="1"/>
    <flow id="flow2_bin6" type="motorbike" from="HQC_J4_J3" begin="432.0" end="504.0" number="7"/>
    <flow id="flow6_bin6" type="motorbike" from="HQC_J2_J3" begin="432.0" end="504.0" number="7"/>
    <flow id="flow9_bin6" type="car" from="PVB_J6_J3" begin="432.0" end="504.0" number="9"/>
    <flow id="flow10_bin6" type="motorbike" from="PVB_J6_J3" begin="432.0" end="504.0" number="19"/>
    <flow id="flow13_bin6" type="car" from="PVB_J0_J3" begin="432.0" end="504.0" number="4"/>
    <flow id="flow14_bin6" type="motorbike" from="PVB_J0_J3" begin="432.0" end="504.0" number="27"/>
    <flow id="flow1_bin7" type="car" from="HQC_J4_J3" begin="504.0" end="576.0" number="1"/>
    <flow id="flow2_bin7" type="motorbike" from="HQC_J4_J3" begin="504.0" end="576.0" number="9"/>
    <flow id="flow6_bin7" type="motorbike" from="HQC_J2_J3" begin="504.0" end="576.0" number="5"/>
    <flow id="flow9_bin7" type="car" from="PVB_J6_J3" begin="504.0" end="576.0" number="5"/>
    <flow id="flow10_bin7" type="motorbike" from="PVB_J6_J3" begin="504.0" end="576.0" number="32"/>
    <flow id="flow13_bin7" type="car" from="PVB_J0_J3" begin="504.0" end="576.0" number="5"/>
    <flow id="flow14_bin7" type="motorbike" from="PVB_J0_J3" begin="504.0" end="576.0" number="29"/>
    <flow id="flow1_bin8" type="car" from="HQC_J4_J3" begin="576.0" end="648.0" number="2"/>
    <flow id="flow2_bin8" type="motorbike" from="HQC_J4_J3" begin="576.0" end="648.0" number="11"/>
    <flow id="flow5_bin8" type="car" from="HQC_J2_J3" begin="576.0" end="648.0" number="4"/>
    <flow id="flow6_bin8" type="motorbike" from="HQC_J2_J3" begin="576.0" end="648.0" number="7"/>
    <flow id="flow9_bin8" type="car" from="PVB_J6_J3" begin="576.0" end="648.0" number="6"/>
    <flow id="flow10_bin8" type="motorbike" from="PVB_J6_J3" begin="576.0" end="648.0" number="23"/>
    <flow id="flow13_bin8" type="car" from="PVB_J0_J3" begin="576.0" end="648.0" number="3"/>
    <flow id="flow14_bin8" type="motorbike" from="PVB_J0_J3" begin="576.0" end="648.0" number="24"/>
    <flow id="flow1_bin9" type="car" from="HQC_J4_J3" begin="648.0" end="720.0" number="2"/>
    <flow id="flow2_bin9" type="motorbike" from="HQC_J4_J3" begin="648.0" end="720.0" number="8"/>
    <flow id="flow5_bin9" type="car" from="HQC_J2_J3" begin="648.0" end="720.0" number="2"/>
    <flow id="flow6_bin9" type="motorbike" from="HQC_J2_J3" begin="648.0" end="720.0" number="8"/>
    <flow id="flow9_bin9" type="car" from="PVB_J6_J3" begin="648.0" end="720.0" number="7"/>
    <flow id="flow10_bin9" type="motorbike" from="PVB_J6_J3" begin="648.0" end="720.0" number="33"/>
    <flow id="flow13_bin9" type="car" from="PVB_J0_J3" begin="648.0" end="720.0" number="6"/>
    <flow id="flow14_bin9" type="motorbike" from="PVB_J0_J3" begin="648.0" end="720.0" number="36"/>
    <flow id="flow1_bin10" type="car" from="HQC_J4_J3" begin="720.0" end="792.0" number="3"/>
    <flow id="flow2_bin10" type="motorbike" from="HQC_J4_J3" begin="720.0" end="792.0" number="12"/>
    <flow id="flow5_bin10" type="car" from="HQC_J2_J3" begin="720.0" end="792.0" number="4"/>
    <flow id="flow6_bin10" type="motorbike" from="HQC_J2_J3" begin="720.0" end="792.0" number="9"/>
    <flow id="flow9_bin10" type="car" from="PVB_J6_J3" begin="720.0" end="792.0" number="5"/>
    <flow id="flow10_bin10" type="motorbike" from="PVB_J6_J3" begin="720.0" end="792.0" number="43"/>
    <flow id="flow13_bin10" type="car" from="PVB_J0_J3" begin="720.0" end="792.0" number="9"/>
    <flow id="flow14_bin10" type="motorbike" from="PVB_J0_J3" begin="720.0" end="792.0" number="36"/>
    <flow id="flow1_bin11" type="car" from="HQC_J4_J3" begin="792.0" end="864.0" number="1"/>
    <flow id="flow2_bin11" type="motorbike" from="HQC_J4_J3" begin="792.0" end="864.0" number="4"/>
    <flow id="flow5_bin11" type="car" from="HQC_J2_J3" begin="792.0" end="864.0" number="1"/>
    <flow id="flow6_bin11" type="motorbike" from="HQC_J2_J3" begin="792.0" end="864.0" number="9"/>
    <flow id="flow9_bin11" type="car" from="PVB_J6_J3" begin="792.0" end="864.0" number="8"/>
    <flow id="flow10_bin11" type="motorbike" from="PVB_J6_J3" begin="792.0" end="864.0" number="64"/>
    <flow id="flow13_bin11" type="car" from="PVB_J0_J3" begin="792.0" end="864.0" number="7"/>
    <flow id="flow14_bin11" type="motorbike" from="PVB_J0_J3" begin="792.0" end="864.0" number="44"/>
    <flow id="flow1_bin12" type="car" from="HQC_J4_J3" begin="864.0" end="936.0" number="3"/>
    <flow id="flow2_bin12" type="motorbike" from="HQC_J4_J3" begin="864.0" end="936.0" number="7"/>
    <flow id="flow3_bin12" type="bus" from="HQC_J4_J3" begin="864.0" end="936.0" number="1"/>
    <flow id="flow5_bin12" type="car" from="HQC_J2_J3" begin="864.0" end="936.0" number="2"/>
    <flow id="flow6_bin12" type="motorbike" from="HQC_J2_J3" begin="864.0" end="936.0" number="18"/>
    <flow id="flow9_bin12" type="car" from="PVB_J6_J3" begin="864.0" end="936.0" number="10"/>
    <flow id="flow10_bin12" type="motorbike" from="PVB_J6_J3" begin="864.0" end="936.0" number="45"/>
    <flow id="flow13_bin12" type="car" from="PVB_J0_J3" begin="864.0" end="936.0" number="5"/>
    <flow id="flow14_bin12" type="motorbike" from="PVB_J0_J3" begin="864.0" end="936.0" number="29"/>
    <flow id="flow16_bin12" type="truck" from="PVB_J0_J3" begin="864.0" end="936.0" number="1"/>
    <flow id="flow1_bin13" type="car" from="HQC_J4_J3" begin="936.0" end="1008.0" number="2"/>
    <flow id="flow2_bin13" type="motorbike" from="HQC_J4_J3" begin="936.0" end="1008.0" number="11"/>
    <flow id="flow5_bin13" type="car" from="HQC_J2_J3" begin="936.0" end="1008.0" number="3"/>
    <flow id="flow6_bin13" type="motorbike" from="HQC_J2_J3" begin="936.0" end="1008.0" number="19"/>
    <flow id="flow9_bin13" type="car" from="PVB_J6_J3" begin="936.0" end="1008.0" number="18"/>
    <flow id="flow10_bin13" type="motorbike" from="PVB_J6_J3" begin="936.0" end="1008.0" number="55"/>
    <flow id="flow11_bin13" type="bus" from="PVB_J6_J3" begin="936.0" end="1008.0" number="1"/>
    <flow id="flow13_bin13" type="car" from="PVB_J0_J3" begin="936.0" end="1008.0" number="9"/>
    <flow id="flow14_bin13" type="motorbike" from="PVB_J0_J3" begin="936.0" end="1008.0" number="43"/>
    <flow id="flow1_bin14" type="car" from="HQC_J4_J3" begin="1008.0" end="1080.0" number="1"/>
    <flow id="flow2_bin14" type="motorbike" from="HQC_J4_J3" begin="1008.0" end="1080.0" number="18"/>
    <flow id="flow5_bin14" type="car" from="HQC_J2_J3" begin="1008.0" end="1080.0" number="3"/>
    <flow id="flow6_bin14" type="motorbike" from="HQC_J2_J3" begin="1008.0" end="1080.0" number="14"/>
    <flow id="flow9_bin14" type="car" from="PVB_J6_J3" begin="1008.0" end="1080.0" number="13"/>
    <flow id="flow10_bin14" type="motorbike" from="PVB_J6_J3" begin="1008.0" end="1080.0" number="55"/>
    <flow id="flow13_bin14" type="car" from="PVB_J0_J3" begin="1008.0" end="1080.0" number="12"/>
    <flow id="flow14_bin14" type="motorbike" from="PVB_J0_J3" begin="1008.0" end="1080.0" number="41"/>
    <flow id="flow1_bin15" type="car" from="HQC_J4_J3" begin="1080.0" end="1152.0" number="3"/>
    <flow id="flow2_bin15" type="motorbike" from="HQC_J4_J3" begin="1080.0" end="1152.0" number="12"/>
    <flow id="flow5_bin15" type="car" from="HQC_J2_J3" begin="1080.0" end="1152.0" number="2"/>
    <flow id="flow6_bin15" type="motorbike" from="HQC_J2_J3" begin="1080.0" end="1152.0" number="12"/>
    <flow id="flow9_bin15" type="car" from="PVB_J6_J3" begin="1080.0" end="1152.0" number="8"/>
    <flow id="flow10_bin15" type="motorbike" from="PVB_J6_J3" begin="1080.0" end="1152.0" number="59"/>
    <flow id="flow13_bin15" type="car" from="PVB_J0_J3" begin="1080.0" end="1152.0" number="10"/>
    <flow id="flow14_bin15" type="motorbike" from="PVB_J0_J3" begin="1080.0" end="1152.0" number="49"/>
    <flow id="flow1_bin16" type="car" from="HQC_J4_J3" begin="1152.0" end="1224.0" number="2"/>
    <flow id="flow2_bin16" type="motorbike" from="HQC_J4_J3" begin="1152.0" end="1224.0" number="12"/>
    <flow id="flow5_bin16" type="car" from="HQC_J2_J3" begin="1152.0" end="1224.0" number="2"/>
    <flow id="flow6_bin16" type="motorbike" from="HQC_J2_J3" begin="1152.0" end="1224.0" number="15"/>
    <flow id="flow9_bin16" type="car" from="PVB_J6_J3" begin="1152.0" end="1224.0" number="9"/>
    <flow id="flow10_bin16" type="motorbike" from="PVB_J6_J3" begin="1152.0" end="1224.0" number="59"/>
    <flow id="flow13_bin16" type="car" from="PVB_J0_J3" begin="1152.0" end="1224.0" number="16"/>
    <flow id="flow14_bin16" type="motorbike" from="PVB_J0_J3" begin="1152.0" end="1224.0" number="60"/>
    <flow id="flow1_bin17" type="car" from="HQC_J4_J3" begin="1224.0" end="1296.0" number="5"/>
    <flow id="flow2_bin17" type="motorbike" from="HQC_J4_J3" begin="1224.0" end="1296.0" number="17"/>
    <flow id="flow3_bin17" type="bus" from="HQC_J4_J3" begin="1224.0" end="1296.0" number="1"/>
    <flow id="flow5_bin17" type="car" from="HQC_J2_J3" begin="1224.0" end="1296.0" number="1"/>
    <flow id="flow6_bin17" type="motorbike" from="HQC_J2_J3" begin="1224.0" end="1296.0" number="21"/>
    <flow id="flow9_bin17" type="car" from="PVB_J6_J3" begin="1224.0" end="1296.0" number="8"/>
    <flow id="flow10_bin17" type="motorbike" from="PVB_J6_J3" begin="1224.0" end="1296.0" number="61"/>
    <flow id="flow13_bin17" type="car" from="PVB_J0_J3" begin="1224.0" end="1296.0" number="8"/>
    <flow id="flow14_bin17" type="motorbike" from="PVB_J0_J3" begin="1224.0" end="1296.0" number="54"/>
    <flow id="flow16_bin17" type="truck" from="PVB_J0_J3" begin="1224.0" end="1296.0" number="1"/>
    <flow id="flow1_bin18" type="car" from="HQC_J4_J3" begin="1296.0" end="1368.0" number="1"/>
    <flow id="flow2_bin18" type="motorbike" from="HQC_J4_J3" begin="1296.0" end="1368.0" number="14"/>
    <flow id="flow3_bin18" type="bus" from="HQC_J4_J3" begin="1296.0" end="1368.0" number="1"/>
    <flow id="flow5_bin18" type="car" from="HQC_J2_J3" begin="1296.0" end="1368.0" number="4"/>
    <flow id="flow6_bin18" type="motorbike" from="HQC_J2_J3" begin="1296.0" end="1368.0" number="16"/>
    <flow id="flow7_bin18" type="bus" from="HQC_J2_J3" begin="1296.0" end="1368.0" number="1"/>
    <flow id="flow9_bin18" type="car" from="PVB_J6_J3" begin="1296.0" end="1368.0" number="8"/>
    <flow id="flow10_bin18" type="motorbike" from="PVB_J6_J3" begin="1296.0" end="1368.0" number="78"/>
    <flow id="flow13_bin18" type="car" from="PVB_J0_J3" begin="1296.0" end="1368.0" number="16"/>
    <flow id="flow14_bin18" type="motorbike" from="PVB_J0_J3" begin="1296.0" end="1368.0" number="57"/>
    <flow id="flow1_bin19" type="car" from="HQC_J4_J3" begin="1368.0" end="1440.0" number="4"/>
    <flow id="flow2_bin19" type="motorbike" from="HQC_J4_J3" begin="1368.0" end="1440.0" number="12"/>
    <flow id="flow5_bin19" type="car" from="HQC_J2_J3" begin="1368.0" end="1440.0" number="2"/>
    <flow id="flow6_bin19" type="motorbike" from="HQC_J2_J3" begin="1368.0" end="1440.0" number="18"/>
    <flow id="flow9_bin19" type="car" from="PVB_J6_J3" begin="1368.0" end="1440.0" number="11"/>
    <flow id="flow10_bin19" type="motorbike" from="PVB_J6_J3" begin="1368.0" end="1440.0" number="57"/>
    <flow id="flow13_bin19" type="car" from="PVB_J0_J3" begin="1368.0" end="1440.0" number="14"/>
    <flow id="flow14_bin19" type="motorbike" from="PVB_J0_J3" begin="1368.0" end="1440.0" number="49"/>
    <flow id="flow1_bin20" type="car" from="HQC_J4_J3" begin="1440.0" end="1512.0" number="3"/>
    <flow id="flow2_bin20" type="motorbike" from="HQC_J4_J3" begin="1440.0" end="1512.0" number="19"/>
    <flow id="flow5_bin20" type="car" from="HQC_J2_J3" begin="1440.0" end="1512.0" number="2"/>
    <flow id="flow6_bin20" type="motorbike" from="HQC_J2_J3" begin="1440.0" end="1512.0" number="14"/>
    <flow id="flow9_bin20" type="car" from="PVB_J6_J3" begin="1440.0" end="1512.0" number="15"/>
    <flow id="flow10_bin20" type="motorbike" from="PVB_J6_J3" begin="1440.0" end="1512.0" number="71"/>
    <flow id="flow13_bin20" type="car" from="PVB_J0_J3" begin="1440.0" end="1512.0" number="5"/>
    <flow id="flow14_bin20" type="motorbike" from="PVB_J0_J3" begin="1440.0" end="1512.0" number="55"/>
    <flow id="flow1_bin21" type="car" from="HQC_J4_J3" begin="1512.0" end="1584.0" number="2"/>
    <flow id="flow2_bin21" type="motorbike" from="HQC_J4_J3" begin="1512.0" end="1584.0" number="17"/>
    <flow id="flow5_bin21" type="car" from="HQC_J2_J3" begin="1512.0" end="1584.0" number="5"/>
    <flow id="flow6_bin21" type="motorbike" from="HQC_J2_J3" begin="1512.0" end="1584.0" number="14"/>
    <flow id="flow9_bin21" type="car" from="PVB_J6_J3" begin="1512.0" end="1584.0" number="16"/>
    <flow id="flow10_bin21" type="motorbike" from="PVB_J6_J3" begin="1512.0" end="1584.0" number="79"/>
    <flow id="flow13_bin21" type="car" from="PVB_J0_J3" begin="1512.0" end="1584.0" number="14"/>
    <flow id="flow14_bin21" type="motorbike" from="PVB_J0_J3" begin="1512.0" end="1584.0" number="77"/>
    <flow id="flow1_bin22" type="car" from="HQC_J4_J3" begin="1584.0" end="1656.0" number="5"/>
    <flow id="flow2_bin22" type="motorbike" from="HQC_J4_J3" begin="1584.0" end="1656.0" number="21"/>
    <flow id="flow5_bin22" type="car" from="HQC_J2_J3" begin="1584.0" end="1656.0" number="4"/>
    <flow id="flow6_bin22" type="motorbike" from="HQC_J2_J3" begin="1584.0" end="1656.0" number="10"/>
    <flow id="flow9_bin22" type="car" from="PVB_J6_J3" begin="1584.0" end="1656.0" number="14"/>
    <flow id="flow10_bin22" type="motorbike" from="PVB_J6_J3" begin="1584.0" end="1656.0" number="72"/>
    <flow id="flow13_bin22" type="car" from="PVB_J0_J3" begin="1584.0" end="1656.0" number="10"/>
    <flow id="flow14_bin22" type="motorbike" from="PVB_J0_J3" begin="1584.0" end="1656.0" number="75"/>
    <flow id="flow16_bin22" type="truck" from="PVB_J0_J3" begin="1584.0" end="1656.0" number="1"/>
    <flow id="flow1_bin23" type="car" from="HQC_J4_J3" begin="1656.0" end="1728.0" number="3"/>
    <flow id="flow2_bin23" type="motorbike" from="HQC_J4_J3" begin="1656.0" end="1728.0" number="6"/>
    <flow id="flow3_bin23" type="bus" from="HQC_J4_J3" begin="1656.0" end="1728.0" number="1"/>
    <flow id="flow5_bin23" type="car" from="HQC_J2_J3" begin="1656.0" end="1728.0" number="3"/>
    <flow id="flow6_bin23" type="motorbike" from="HQC_J2_J3" begin="1656.0" end="1728.0" number="19"/>
    <flow id="flow9_bin23" type="car" from="PVB_J6_J3" begin="1656.0" end="1728.0" number="20"/>
    <flow id="flow10_bin23" type="motorbike" from="PVB_J6_J3" begin="1656.0" end="1728.0" number="81"/>
    <flow id="flow13_bin23" type="car" from="PVB_J0_J3" begin="1656.0" end="1728.0" number="13"/>
    <flow id="flow14_bin23" type="motorbike" from="PVB_J0_J3" begin="1656.0" end="1728.0" number="70"/>
    <flow id="flow1_bin24" type="car" from="HQC_J4_J3" begin="1728.0" end="1800.0" number="1"/>
    <flow id="flow2_bin24" type="motorbike" from="HQC_J4_J3" begin="1728.0" end="1800.0" number="14"/>
    <flow id="flow5_bin24" type="car" from="HQC_J2_J3" begin="1728.0" end="1800.0" number="4"/>
    <flow id="flow6_bin24" type="motorbike" from="HQC_J2_J3" begin="1728.0" end="1800.0" number="15"/>
    <flow id="flow9_bin24" type="car" from="PVB_J6_J3" begin="1728.0" end="1800.0" number="18"/>
    <flow id="flow10_bin24" type="motorbike" from="PVB_J6_J3" begin="1728.0" end="1800.0" number="81"/>
    <flow id="flow13_bin24" type="car" from="PVB_J0_J3" begin="1728.0" end="1800.0" number="14"/>
    <flow id="flow14_bin24" type="motorbike" from="PVB_J0_J3" begin="1728.0" end="1800.0" number="82"/>
    <flow id="flow1_bin25" type="car" from="HQC_J4_J3" begin="1800.0" end="1872.0" number="4"/>
    <flow id="flow2_bin25" type="motorbike" from="HQC_J4_J3" begin="1800.0" end="1872.0" number="17"/>
    <flow id="flow5_bin25" type="car" from="HQC_J2_J3" begin="1800.0" end="1872.0" number="2"/>
    <flow id="flow6_bin25" type="motorbike" from="HQC_J2_J3" begin="1800.0" end="1872.0" number="13"/>
    <flow id="flow9_bin25" type="car" from="PVB_J6_J3" begin="1800.0" end="1872.0" number="17"/>
    <flow id="flow10_bin25" type="motorbike" from="PVB_J6_J3" begin="1800.0" end="1872.0" number="79"/>
    <flow id="flow13_bin25" type="car" from="PVB_J0_J3" begin="1800.0" end="1872.0" number="11"/>
    <flow id="flow14_bin25" type="motorbike" from="PVB_J0_J3" begin="1800.0" end="1872.0" number="72"/>
    <flow id="flow1_bin26" type="car" from="HQC_J4_J3" begin="1872.0" end="1944.0" number="6"/>
    <flow id="flow2_bin26" type="motorbike" from="HQC_J4_J3" begin="1872.0" end="1944.0" number="19"/>
    <flow id="flow5_bin26" type="car" from="HQC_J2_J3" begin="1872.0" end="1944.0" number="5"/>
    <flow id="flow6_bin26" type="motorbike" from="HQC_J2_J3" begin="1872.0" end="1944.0" number="17"/>
    <flow id="flow9_bin26" type="car" from="PVB_J6_J3" begin="1872.0" end="1944.0" number="23"/>
    <flow id="flow10_bin26" type="motorbike" from="PVB_J6_J3" begin="1872.0" end="1944.0" number="88"/>
    <flow id="flow11_bin26" type="bus" from="PVB_J6_J3" begin="1872.0" end="1944.0" number="1"/>
    <flow id="flow13_bin26" type="car" from="PVB_J0_J3" begin="1872.0" end="1944.0" number="13"/>
    <flow id="flow14_bin26" type="motorbike" from="PVB_J0_J3" begin="1872.0" end="1944.0" number="77"/>
    <flow id="flow15_bin26" type="bus" from="PVB_J0_J3" begin="1872.0" end="1944.0" number="1"/>
    <flow id="flow1_bin27" type="car" from="HQC_J4_J3" begin="1944.0" end="2016.0" number="2"/>
    <flow id="flow2_bin27" type="motorbike" from="HQC_J4_J3" begin="1944.0" end="2016.0" number="13"/>
    <flow id="flow4_bin27" type="truck" from="HQC_J4_J3" begin="1944.0" end="2016.0" number="1"/>
    <flow id="flow5_bin27" type="car" from="HQC_J2_J3" begin="1944.0" end="2016.0" number="2"/>
    <flow id="flow6_bin27" type="motorbike" from="HQC_J2_J3" begin="1944.0" end="2016.0" number="16"/>
    <flow id="flow9_bin27" type="car" from="PVB_J6_J3" begin="1944.0" end="2016.0" number="19"/>
    <flow id="flow10_bin27" type="motorbike" from="PVB_J6_J3" begin="1944.0" end="2016.0" number="84"/>
    <flow id="flow11_bin27" type="bus" from="PVB_J6_J3" begin="1944.0" end="2016.0" number="1"/>
    <flow id="flow13_bin27" type="car" from="PVB_J0_J3" begin="1944.0" end="2016.0" number="16"/>
    <flow id="flow14_bin27" type="motorbike" from="PVB_J0_J3" begin="1944.0" end="2016.0" number="68"/>
    <flow id="flow1_bin28" type="car" from="HQC_J4_J3" begin="2016.0" end="2088.0" number="4"/>
    <flow id="flow2_bin28" type="motorbike" from="HQC_J4_J3" begin="2016.0" end="2088.0" number="21"/>
    <flow id="flow5_bin28" type="car" from="HQC_J2_J3" begin="2016.0" end="2088.0" number="2"/>
    <flow id="flow6_bin28" type="motorbike" from="HQC_J2_J3" begin="2016.0" end="2088.0" number="24"/>
    <flow id="flow9_bin28" type="car" from="PVB_J6_J3" begin="2016.0" end="2088.0" number="18"/>
    <flow id="flow10_bin28" type="motorbike" from="PVB_J6_J3" begin="2016.0" end="2088.0" number="83"/>
    <flow id="flow13_bin28" type="car" from="PVB_J0_J3" begin="2016.0" end="2088.0" number="14"/>
    <flow id="flow14_bin28" type="motorbike" from="PVB_J0_J3" begin="2016.0" end="2088.0" number="77"/>
    <flow id="flow16_bin28" type="truck" from="PVB_J0_J3" begin="2016.0" end="2088.0" number="1"/>
    <flow id="flow1_bin29" type="car" from="HQC_J4_J3" begin="2088.0" end="2160.0" number="4"/>
    <flow id="flow2_bin29" type="motorbike" from="HQC_J4_J3" begin="2088.0" end="2160.0" number="16"/>
    <flow id="flow5_bin29" type="car" from="HQC_J2_J3" begin="2088.0" end="2160.0" number="1"/>
    <flow id="flow6_bin29" type="motorbike" from="HQC_J2_J3" begin="2088.0" end="2160.0" number="23"/>
    <flow id="flow9_bin29" type="car" from="PVB_J6_J3" begin="2088.0" end="2160.0" number="17"/>
    <flow id="flow10_bin29" type="motorbike" from="PVB_J6_J3" begin="2088.0" end="2160.0" number="68"/>
    <flow id="flow12_bin29" type="truck" from="PVB_J6_J3" begin="2088.0" end="2160.0" number="1"/>
    <flow id="flow13_bin29" type="car" from="PVB_J0_J3" begin="2088.0" end="2160.0" number="18"/>
    <flow id="flow14_bin29" type="motorbike" from="PVB_J0_J3" begin="2088.0" end="2160.0" number="77"/>
    <flow id="flow15_bin29" type="bus" from="PVB_J0_J3" begin="2088.0" end="2160.0" number="2"/>
    <flow id="flow1_bin30" type="car" from="HQC_J4_J3" begin="2160.0" end="2232.0" number="6"/>
    <flow id="flow2_bin30" type="motorbike" from="HQC_J4_J3" begin="2160.0" end="2232.0" number="7"/>
    <flow id="flow5_bin30" type="car" from="HQC_J2_J3" begin="2160.0" end="2232.0" number="3"/>
    <flow id="flow6_bin30" type="motorbike" from="HQC_J2_J3" begin="2160.0" end="2232.0" number="26"/>
    <flow id="flow7_bin30" type="bus" from="HQC_J2_J3" begin="2160.0" end="2232.0" number="1"/>
    <flow id="flow9_bin30" type="car" from="PVB_J6_J3" begin="2160.0" end="2232.0" number="14"/>
    <flow id="flow10_bin30" type="motorbike" from="PVB_J6_J3" begin="2160.0" end="2232.0" number="93"/>
    <flow id="flow12_bin30" type="truck" from="PVB_J6_J3" begin="2160.0" end="2232.0" number="1"/>
    <flow id="flow13_bin30" type="car" from="PVB_J0_J3" begin="2160.0" end="2232.0" number="12"/>
    <flow id="flow14_bin30" type="motorbike" from="PVB_J0_J3" begin="2160.0" end="2232.0" number="75"/>
    <flow id="flow15_bin30" type="bus" from="PVB_J0_J3" begin="2160.0" end="2232.0" number="1"/>
    <flow id="flow1_bin31" type="car" from="HQC_J4_J3" begin="2232.0" end="2304.0" number="5"/>
    <flow id="flow2_bin31" type="motorbike" from="HQC_J4_J3" begin="2232.0" end="2304.0" number="16"/>
    <flow id="flow5_bin31" type="car" from="HQC_J2_J3" begin="2232.0" end="2304.0" number="2"/>
    <flow id="flow6_bin31" type="motorbike" from="HQC_J2_J3" begin="2232.0" end="2304.0" number="15"/>
    <flow id="flow9_bin31" type="car" from="PVB_J6_J3" begin="2232.0" end="2304.0" number="17"/>
    <flow id="flow10_bin31" type="motorbike" from="PVB_J6_J3" begin="2232.0" end="2304.0" number="86"/>
    <flow id="flow11_bin31" type="bus" from="PVB_J6_J3" begin="2232.0" end="2304.0" number="1"/>
    <flow id="flow13_bin31" type="car" from="PVB_J0_J3" begin="2232.0" end="2304.0" number="20"/>
    <flow id="flow14_bin31" type="motorbike" from="PVB_J0_J3" begin="2232.0" end="2304.0" number="80"/>
    <flow id="flow16_bin31" type="truck" from="PVB_J0_J3" begin="2232.0" end="2304.0" number="1"/>
    <flow id="flow1_bin32" type="car" from="HQC_J4_J3" begin="2304.0" end="2376.0" number="4"/>
    <flow id="flow2_bin32" type="motorbike" from="HQC_J4_J3" begin="2304.0" end="2376.0" number="19"/>
    <flow id="flow5_bin32" type="car" from="HQC_J2_J3" begin="2304.0" end="2376.0" number="5"/>
    <flow id="flow6_bin32" type="motorbike" from="HQC_J2_J3" begin="2304.0" end="2376.0" number="20"/>
    <flow id="flow9_bin32" type="car" from="PVB_J6_J3" begin="2304.0" end="2376.0" number="13"/>
    <flow id="flow10_bin32" type="motorbike" from="PVB_J6_J3" begin="2304.0" end="2376.0" number="88"/>
    <flow id="flow13_bin32" type="car" from="PVB_J0_J3" begin="2304.0" end="2376.0" number="22"/>
    <flow id="flow14_bin32" type="motorbike" from="PVB_J0_J3" begin="2304.0" end="2376.0" number="75"/>
    <flow id="flow16_bin32" type="truck" from="PVB_J0_J3" begin="2304.0" end="2376.0" number="1"/>
    <flow id="flow1_bin33" type="car" from="HQC_J4_J3" begin="2376.0" end="2448.0" number="5"/>
    <flow id="flow2_bin33" type="motorbike" from="HQC_J4_J3" begin="2376.0" end="2448.0" number="17"/>
    <flow id="flow5_bin33" type="car" from="HQC_J2_J3" begin="2376.0" end="2448.0" number="1"/>
    <flow id="flow6_bin33" type="motorbike" from="HQC_J2_J3" begin="2376.0" end="2448.0" number="25"/>
    <flow id="flow9_bin33" type="car" from="PVB_J6_J3" begin="2376.0" end="2448.0" number="17"/>
    <flow id="flow10_bin33" type="motorbike" from="PVB_J6_J3" begin="2376.0" end="2448.0" number="85"/>
    <flow id="flow13_bin33" type="car" from="PVB_J0_J3" begin="2376.0" end="2448.0" number="15"/>
    <flow id="flow14_bin33" type="motorbike" from="PVB_J0_J3" begin="2376.0" end="2448.0" number="67"/>
    <flow id="flow1_bin34" type="car" from="HQC_J4_J3" begin="2448.0" end="2520.0" number="2"/>
    <flow id="flow2_bin34" type="motorbike" from="HQC_J4_J3" begin="2448.0" end="2520.0" number="20"/>
    <flow id="flow5_bin34" type="car" from="HQC_J2_J3" begin="2448.0" end="2520.0" number="1"/>
    <flow id="flow6_bin34" type="motorbike" from="HQC_J2_J3" begin="2448.0" end="2520.0" number="20"/>
    <flow id="flow9_bin34" type="car" from="PVB_J6_J3" begin="2448.0" end="2520.0" number="17"/>
    <flow id="flow10_bin34" type="motorbike" from="PVB_J6_J3" begin="2448.0" end="2520.0" number="84"/>
    <flow id="flow13_bin34" type="car" from="PVB_J0_J3" begin="2448.0" end="2520.0" number="18"/>
    <flow id="flow14_bin34" type="motorbike" from="PVB_J0_J3" begin="2448.0" end="2520.0" number="68"/>
    <flow id="flow1_bin35" type="car" from="HQC_J4_J3" begin="2520.0" end="2592.0" number="1"/>
    <flow id="flow2_bin35" type="motorbike" from="HQC_J4_J3" begin="2520.0" end="2592.0" number="19"/>
    <flow id="flow5_bin35" type="car" from="HQC_J2_J3" begin="2520.0" end="2592.0" number="4"/>
    <flow id="flow6_bin35" type="motorbike" from="HQC_J2_J3" begin="2520.0" end="2592.0" number="23"/>
    <flow id="flow7_bin35" type="bus" from="HQC_J2_J3" begin="2520.0" end="2592.0" number="1"/>
    <flow id="flow9_bin35" type="car" from="PVB_J6_J3" begin="2520.0" end="2592.0" number="19"/>
    <flow id="flow10_bin35" type="motorbike" from="PVB_J6_J3" begin="2520.0" end="2592.0" number="86"/>
    <flow id="flow13_bin35" type="car" from="PVB_J0_J3" begin="2520.0" end="2592.0" number="24"/>
    <flow id="flow14_bin35" type="motorbike" from="PVB_J0_J3" begin="2520.0" end="2592.0" number="82"/>
    <flow id="flow1_bin36" type="car" from="HQC_J4_J3" begin="2592.0" end="2664.0" number="2"/>
    <flow id="flow2_bin36" type="motorbike" from="HQC_J4_J3" begin="2592.0" end="2664.0" number="19"/>
    <flow id="flow6_bin36" type="motorbike" from="HQC_J2_J3" begin="2592.0" end="2664.0" number="20"/>
    <flow id="flow7_bin36" type="bus" from="HQC_J2_J3" begin="2592.0" end="2664.0" number="1"/>