<?xml version="1.0" encoding="UTF-8"?>

<!-- generated on 2025-06-16 18:26:12 by Eclipse SUMO netedit Version 1.22.0
-->

<additional xmlns:xsi="http://www.w3.org/2001/XMLSchema-instance" xsi:noNamespaceSchemaLocation="http://sumo.dlr.de/xsd/additional_file.xsd">
    <!-- Detectors -->
    <laneAreaDetector id="HQC_J2_J3_0" lane="HQC_J2_J3_0" pos="105.00" length="30.00" period="300.00" file="e2_8.xml"/>
    <laneAreaDetector id="HQC_J4_J3_0" lane="HQC_J4_J3_0" pos="104.70" length="30.00" period="300.00" file="e2_6.xml" friendlyPos="1"/>
    <laneAreaDetector id="PVB_J0_J3_0" lane="PVB_J0_J3_0" pos="116.50" length="30.00" period="300.00" file="e2_2.xml"/>
    <laneAreaDetector id="PVB_J0_J3_1" lane="PVB_J0_J3_1" pos="116.50" length="30.00" period="300.00" file="e2_4.xml"/>
    <laneAreaDetector id="PVB_J0_J3_2" lane="PVB_J0_J3_2" pos="116.50" length="30.00" period="300.00" file="e2_5.xml"/>
    <laneAreaDetector id="PVB_J6_J3_0" lane="PVB_J6_J3_0" pos="109.50" length="30.00" period="300.00" file="e2_1.xml"/>
    <laneAreaDetector id="PVB_J6_J3_1" lane="PVB_J6_J3_1" pos="109.50" length="30.00" period="300.00" file="e2_0.xml"/>
    <laneAreaDetector id="PVB_J6_J3_2" lane="PVB_J6_J3_2" pos="109.50" length="30.00" period="300.00" file="e2_3.xml"/>
</additional>
