<?xml version="1.0" encoding="UTF-8"?>

<!-- generated on 2025-06-16 14:00:32 by Eclipse SUMO jtrrouter Version 1.22.0
<jtrrouterConfiguration xmlns:xsi="http://www.w3.org/2001/XMLSchema-instance" xsi:noNamespaceSchemaLocation="http://sumo.dlr.de/xsd/jtrrouterConfiguration.xsd">

    <input>
        <net-file value=".\../datn.net.xml"/>
        <additional-files value=".\./vehicles.vtype.xml"/>
        <route-files value=".\./weibull_flows.xml"/>
        <turn-ratio-files value=".\./datn.turns.xml"/>
    </input>

    <output>
        <output-file value=".\../routes.rou.xml"/>
    </output>

    <processing>
        <randomize-flows value="true"/>
        <sink-edges value="HQC_J3_J2,PVB_J3_J5,PVB_J3_J1,HQC_J3_J4"/>
    </processing>

</jtrrouterConfiguration>
-->

<routes xmlns:xsi="http://www.w3.org/2001/XMLSchema-instance" xsi:noNamespaceSchemaLocation="http://sumo.dlr.de/xsd/routes_file.xsd">
    <vType id="motorbike" length="2.20" minGap="1.00" maxSpeed="16.67" speedFactor="normc(1.10,0.20,0.80,1.40)" vClass="motorcycle" emissionClass="HBEFA3/PC_G_EU4" width="0.80" height="1.50" color="yellow" laneChangeModel="SL2015" lcStrategic="2.0" lcCooperative="0.3" lcSpeedGain="2.0" lcKeepRight="0.2" lcSublane="2.0" lcPushy="1.5" lcAssertive="2.0" lcImpatience="0.8" lcTimeToImpatience="10.0" lcAccelLat="2.0" lcTurnAlignmentDistance="15.0" accel="2.5" decel="4.5" emergencyDecel="6.0" apparentDecel="3.5" sigma="0.8" tau="0.8"/>
    <vehicle id="flow10_bin0.0" type="motorbike" depart="7.58">
        <route edges="PVB_J6_J3 HQC_J3_J4"/>
    </vehicle>
    <vType id="car" length="4.50" minGap="2.00" maxSpeed="22.22" speedFactor="normc(1.00,0.15,0.70,1.30)" vClass="passenger" emissionClass="HBEFA3/PC_G_EU5" width="1.80" height="1.50" color="white" laneChangeModel="SL2015" lcStrategic="1.0" lcCooperative="1.0" lcSpeedGain="1.0" lcKeepRight="1.0" lcSublane="1.0" lcPushy="0.5" lcAssertive="1.0" lcImpatience="0.3" lcTimeToImpatience="20.0" lcAccelLat="1.5" lcTurnAlignmentDistance="25.0" accel="2.0" decel="4.0" emergencyDecel="5.0" apparentDecel="3.0" sigma="0.5" tau="1.0"/>
    <vehicle id="flow9_bin0.0" type="car" depart="9.51">
        <route edges="PVB_J6_J3 HQC_J3_J4"/>
    </vehicle>
    <vehicle id="flow10_bin0.1" type="motorbike" depart="9.74">
        <route edges="PVB_J6_J3 HQC_J3_J2"/>
    </vehicle>
    <vehicle id="flow10_bin0.2" type="motorbike" depart="12.69">
        <route edges="PVB_J6_J3 HQC_J3_J2"/>
    </vehicle>
    <vehicle id="flow14_bin0.0" type="motorbike" depart="15.39">
        <route edges="PVB_J0_J3 PVB_J3_J5"/>
    </vehicle>
    <vehicle id="flow14_bin0.1" type="motorbike" depart="17.24">
        <route edges="PVB_J0_J3 PVB_J3_J5"/>
    </vehicle>
    <vehicle id="flow6_bin0.0" type="motorbike" depart="35.35">
        <route edges="HQC_J2_J3 HQC_J3_J4"/>
    </vehicle>
    <vehicle id="flow10_bin0.3" type="motorbike" depart="38.16">
        <route edges="PVB_J6_J3 PVB_J3_J1"/>
    </vehicle>
    <vehicle id="flow13_bin0.0" type="car" depart="66.58">
        <route edges="PVB_J0_J3 PVB_J3_J5"/>
    </vehicle>
    <vehicle id="flow9_bin1.0" type="car" depart="79.91">
        <route edges="PVB_J6_J3 PVB_J3_J1"/>
    </vehicle>
    <vehicle id="flow9_bin1.1" type="car" depart="80.27">
        <route edges="PVB_J6_J3 PVB_J3_J1"/>
    </vehicle>
    <vehicle id="flow14_bin1.0" type="motorbike" depart="83.31">
        <route edges="PVB_J0_J3 PVB_J3_J5"/>
    </vehicle>
    <vehicle id="flow13_bin1.0" type="car" depart="88.83">
        <route edges="PVB_J0_J3 PVB_J3_J5"/>
    </vehicle>
    <vehicle id="flow10_bin1.0" type="motorbike" depart="90.04">
        <route edges="PVB_J6_J3 PVB_J3_J1"/>
    </vehicle>
    <vehicle id="flow10_bin1.1" type="motorbike" depart="90.39">
        <route edges="PVB_J6_J3 PVB_J3_J1"/>
    </vehicle>
    <vehicle id="flow14_bin1.1" type="motorbike" depart="91.06">
        <route edges="PVB_J0_J3 PVB_J3_J5"/>
    </vehicle>
    <vehicle id="flow10_bin1.2" type="motorbike" depart="98.85">
        <route edges="PVB_J6_J3 PVB_J3_J1"/>
    </vehicle>
    <vehicle id="flow10_bin1.3" type="motorbike" depart="102.99">
        <route edges="PVB_J6_J3 PVB_J3_J1"/>
    </vehicle>
    <vehicle id="flow10_bin1.4" type="motorbike" depart="105.45">
        <route edges="PVB_J6_J3 HQC_J3_J2"/>
    </vehicle>
    <vehicle id="flow10_bin1.5" type="motorbike" depart="109.69">
        <route edges="PVB_J6_J3 PVB_J3_J1"/>
    </vehicle>
    <vehicle id="flow10_bin1.6" type="motorbike" depart="121.84">
        <route edges="PVB_J6_J3 HQC_J3_J4"/>
    </vehicle>
    <vehicle id="flow10_bin1.7" type="motorbike" depart="124.36">
        <route edges="PVB_J6_J3 PVB_J3_J1"/>
    </vehicle>
    <vehicle id="flow6_bin1.0" type="motorbike" depart="127.65">
        <route edges="HQC_J2_J3 PVB_J3_J1"/>
    </vehicle>
    <vehicle id="flow9_bin1.2" type="car" depart="128.85">
        <route edges="PVB_J6_J3 PVB_J3_J1"/>
    </vehicle>
    <vehicle id="flow14_bin1.2" type="motorbike" depart="130.77">
        <route edges="PVB_J0_J3 PVB_J3_J5"/>
    </vehicle>
    <vehicle id="flow14_bin1.3" type="motorbike" depart="133.96">
        <route edges="PVB_J0_J3 PVB_J3_J5"/>
    </vehicle>
    <vehicle id="flow10_bin1.8" type="motorbike" depart="140.48">
        <route edges="PVB_J6_J3 PVB_J3_J1"/>
    </vehicle>
    <vehicle id="flow14_bin2.0" type="motorbike" depart="155.32">
        <route edges="PVB_J0_J3 PVB_J3_J5"/>
    </vehicle>
    <vehicle id="flow14_bin2.1" type="motorbike" depart="157.47">
        <route edges="PVB_J0_J3 PVB_J3_J5"/>
    </vehicle>
    <vehicle id="flow9_bin2.0" type="car" depart="164.10">
        <route edges="PVB_J6_J3 PVB_J3_J1"/>
    </vehicle>
    <vehicle id="flow14_bin2.2" type="motorbike" depart="169.67">
        <route edges="PVB_J0_J3 PVB_J3_J5"/>
    </vehicle>
    <vehicle id="flow14_bin2.3" type="motorbike" depart="171.36">
        <route edges="PVB_J0_J3 PVB_J3_J5"/>
    </vehicle>
    <vehicle id="flow14_bin2.4" type="motorbike" depart="175.28">
        <route edges="PVB_J0_J3 PVB_J3_J5"/>
    </vehicle>
    <vehicle id="flow14_bin2.5" type="motorbike" depart="175.95">
        <route edges="PVB_J0_J3 PVB_J3_J5"/>
    </vehicle>
    <vehicle id="flow14_bin2.6" type="motorbike" depart="177.65">
        <route edges="PVB_J0_J3 PVB_J3_J5"/>
    </vehicle>
    <vehicle id="flow14_bin2.7" type="motorbike" depart="187.21">
        <route edges="PVB_J0_J3 HQC_J3_J4"/>
    </vehicle>
    <vehicle id="flow10_bin2.0" type="motorbike" depart="187.24">
        <route edges="PVB_J6_J3 PVB_J3_J1"/>
    </vehicle>
    <vehicle id="flow6_bin2.0" type="motorbike" depart="204.23">
        <route edges="HQC_J2_J3 HQC_J3_J4"/>
    </vehicle>
    <vehicle id="flow14_bin2.8" type="motorbike" depart="213.49">
        <route edges="PVB_J0_J3 PVB_J3_J5"/>
    </vehicle>
    <vehicle id="flow10_bin2.1" type="motorbike" depart="213.59">
        <route edges="PVB_J6_J3 HQC_J3_J4"/>
    </vehicle>
    <vehicle id="flow14_bin3.0" type="motorbike" depart="219.52">
        <route edges="PVB_J0_J3 HQC_J3_J2"/>
    </vehicle>
    <vehicle id="flow10_bin3.0" type="motorbike" depart="220.07">
        <route edges="PVB_J6_J3 PVB_J3_J1"/>
    </vehicle>
    <vehicle id="flow14_bin3.1" type="motorbike" depart="220.46">
        <route edges="PVB_J0_J3 PVB_J3_J5"/>
    </vehicle>
    <vehicle id="flow10_bin3.1" type="motorbike" depart="221.40">
        <route edges="PVB_J6_J3 HQC_J3_J4"/>
    </vehicle>
    <vehicle id="flow10_bin3.2" type="motorbike" depart="222.63">
        <route edges="PVB_J6_J3 PVB_J3_J1"/>
    </vehicle>
    <vehicle id="flow14_bin3.2" type="motorbike" depart="222.87">
        <route edges="PVB_J0_J3 PVB_J3_J5"/>
    </vehicle>
    <vehicle id="flow13_bin3.0" type="car" depart="223.38">
        <route edges="PVB_J0_J3 PVB_J3_J5"/>
    </vehicle>
    <vehicle id="flow10_bin3.3" type="motorbike" depart="226.41">
        <route edges="PVB_J6_J3 PVB_J3_J1"/>
    </vehicle>
    <vehicle id="flow6_bin3.0" type="motorbike" depart="229.11">
        <route edges="HQC_J2_J3 PVB_J3_J5"/>
    </vehicle>
    <vehicle id="flow14_bin3.3" type="motorbike" depart="233.22">
        <route edges="PVB_J0_J3 PVB_J3_J5"/>
    </vehicle>
    <vehicle id="flow10_bin3.4" type="motorbike" depart="233.46">
        <route edges="PVB_J6_J3 PVB_J3_J1"/>
    </vehicle>
    <vehicle id="flow14_bin3.4" type="motorbike" depart="234.62">
        <route edges="PVB_J0_J3 PVB_J3_J5"/>
    </vehicle>
    <vehicle id="flow10_bin3.5" type="motorbike" depart="236.63">
        <route edges="PVB_J6_J3 PVB_J3_J1"/>
    </vehicle>
    <vehicle id="flow6_bin3.1" type="motorbike" depart="243.62">
        <route edges="HQC_J2_J3 HQC_J3_J4"/>
    </vehicle>
    <vehicle id="flow14_bin3.5" type="motorbike" depart="246.42">
        <route edges="PVB_J0_J3 PVB_J3_J5"/>
    </vehicle>
    <vehicle id="flow13_bin3.1" type="car" depart="247.30">
        <route edges="PVB_J0_J3 PVB_J3_J5"/>
    </vehicle>
    <vehicle id="flow13_bin3.2" type="car" depart="248.43">
        <route edges="PVB_J0_J3 PVB_J3_J5"/>
    </vehicle>
    <vehicle id="flow14_bin3.6" type="motorbike" depart="248.55">
        <route edges="PVB_J0_J3 PVB_J3_J5"/>
    </vehicle>
    <vehicle id="flow6_bin3.2" type="motorbike" depart="248.80">
        <route edges="HQC_J2_J3 PVB_J3_J5"/>
    </vehicle>
    <vehicle id="flow14_bin3.7" type="motorbike" depart="250.39">
        <route edges="PVB_J0_J3 PVB_J3_J5"/>
    </vehicle>
    <vehicle id="flow1_bin3.0" type="car" depart="251.86">
        <route edges="HQC_J4_J3 PVB_J3_J5"/>
    </vehicle>
    <vehicle id="flow6_bin3.3" type="motorbike" depart="252.17">
        <route edges="HQC_J2_J3 HQC_J3_J4"/>
    </vehicle>
    <vehicle id="flow14_bin3.8" type="motorbike" depart="253.16">
        <route edges="PVB_J0_J3 PVB_J3_J5"/>
    </vehicle>
    <vehicle id="flow5_bin3.0" type="car" depart="256.75">
        <route edges="HQC_J2_J3 HQC_J3_J4"/>
    </vehicle>
    <vehicle id="flow10_bin3.6" type="motorbike" depart="257.55">
        <route edges="PVB_J6_J3 PVB_J3_J1"/>
    </vehicle>
    <vehicle id="flow14_bin3.9" type="motorbike" depart="259.64">
        <route edges="PVB_J0_J3 PVB_J3_J5"/>
    </vehicle>
    <vehicle id="flow14_bin3.10" type="motorbike" depart="262.04">
        <route edges="PVB_J0_J3 PVB_J3_J5"/>
    </vehicle>
    <vehicle id="flow10_bin3.7" type="motorbike" depart="262.91">
        <route edges="PVB_J6_J3 PVB_J3_J1"/>
    </vehicle>
    <vehicle id="flow10_bin3.8" type="motorbike" depart="264.05">
        <route edges="PVB_J6_J3 HQC_J3_J4"/>
    </vehicle>
    <vehicle id="flow6_bin3.4" type="motorbike" depart="264.66">
        <route edges="HQC_J2_J3 HQC_J3_J4"/>
    </vehicle>
    <vehicle id="flow2_bin3.0" type="motorbike" depart="267.51">
        <route edges="HQC_J4_J3 PVB_J3_J5"/>
    </vehicle>
    <vehicle id="flow14_bin3.11" type="motorbike" depart="270.95">
        <route edges="PVB_J0_J3 PVB_J3_J5"/>
    </vehicle>
    <vehicle id="flow14_bin3.12" type="motorbike" depart="271.03">
        <route edges="PVB_J0_J3 PVB_J3_J5"/>
    </vehicle>
    <vehicle id="flow9_bin3.0" type="car" depart="271.96">
        <route edges="PVB_J6_J3 PVB_J3_J1"/>
    </vehicle>
    <vehicle id="flow13_bin3.3" type="car" depart="273.06">
        <route edges="PVB_J0_J3 PVB_J3_J5"/>
    </vehicle>
    <vehicle id="flow14_bin3.13" type="motorbike" depart="273.85">
        <route edges="PVB_J0_J3 PVB_J3_J5"/>
    </vehicle>
    <vehicle id="flow10_bin3.9" type="motorbike" depart="274.88">
        <route edges="PVB_J6_J3 PVB_J3_J1"/>
    </vehicle>
    <vehicle id="flow2_bin3.1" type="motorbike" depart="274.99">
        <route edges="HQC_J4_J3 PVB_J3_J5"/>
    </vehicle>
    <vehicle id="flow14_bin3.14" type="motorbike" depart="279.41">
        <route edges="PVB_J0_J3 PVB_J3_J5"/>
    </vehicle>
    <vehicle id="flow14_bin3.15" type="motorbike" depart="279.70">
        <route edges="PVB_J0_J3 PVB_J3_J5"/>
    </vehicle>
    <vehicle id="flow10_bin4.0" type="motorbike" depart="288.56">
        <route edges="PVB_J6_J3 PVB_J3_J1"/>
    </vehicle>
    <vehicle id="flow9_bin4.0" type="car" depart="288.79">
        <route edges="PVB_J6_J3 PVB_J3_J1"/>
    </vehicle>
    <vehicle id="flow14_bin4.0" type="motorbike" depart="289.75">
        <route edges="PVB_J0_J3 PVB_J3_J5"/>
    </vehicle>
    <vehicle id="flow2_bin4.0" type="motorbike" depart="290.59">
        <route edges="HQC_J4_J3 HQC_J3_J2"/>
    </vehicle>
    <vehicle id="flow14_bin4.1" type="motorbike" depart="291.84">
        <route edges="PVB_J0_J3 HQC_J3_J2"/>
    </vehicle>
    <vType id="bus" length="12.00" minGap="3.00" maxSpeed="16.67" speedFactor="normc(0.95,0.10,0.80,1.10)" vClass="bus" emissionClass="HBEFA3/Bus" width="2.50" height="3.20" color="blue" personCapacity="80" containerCapacity="0" boardingDuration="3.00" loadingDuration="15.00" laneChangeModel="SL2015" lcStrategic="0.8" lcCooperative="1.2" lcSpeedGain="0.8" lcKeepRight="1.2" lcSublane="0.5" lcPushy="0.3" lcAssertive="0.8" lcImpatience="0.1" lcTimeToImpatience="60.0" lcAccelLat="1.0" lcTurnAlignmentDistance="40.0" accel="1.2" decel="3.5" emergencyDecel="4.0" apparentDecel="2.5" sigma="0.3" tau="1.2"/>
    <vehicle id="flow7_bin4.0" type="bus" depart="293.06">
        <route edges="HQC_J2_J3 PVB_J3_J5"/>
    </vehicle>
    <vehicle id="flow9_bin4.1" type="car" depart="294.36">
        <route edges="PVB_J6_J3 PVB_J3_J1"/>
    </vehicle>
    <vehicle id="flow6_bin4.0" type="motorbike" depart="295.94">
        <route edges="HQC_J2_J3 PVB_J3_J1"/>
    </vehicle>
    <vehicle id="flow10_bin4.1" type="motorbike" depart="297.82">
        <route edges="PVB_J6_J3 PVB_J3_J1"/>
    </vehicle>
    <vehicle id="flow10_bin4.2" type="motorbike" depart="299.88">
        <route edges="PVB_J6_J3 PVB_J3_J1"/>
    </vehicle>
    <vehicle id="flow10_bin4.3" type="motorbike" depart="301.56">
        <route edges="PVB_J6_J3 PVB_J3_J1"/>
    </vehicle>
    <vehicle id="flow14_bin4.2" type="motorbike" depart="302.19">
        <route edges="PVB_J0_J3 PVB_J3_J5"/>
    </vehicle>
    <vehicle id="flow14_bin4.3" type="motorbike" depart="302.36">
        <route edges="PVB_J0_J3 PVB_J3_J5"/>
    </vehicle>
    <vehicle id="flow14_bin4.4" type="motorbike" depart="304.72">
        <route edges="PVB_J0_J3 PVB_J3_J5"/>
    </vehicle>
    <vehicle id="flow10_bin4.4" type="motorbike" depart="306.68">
        <route edges="PVB_J6_J3 PVB_J3_J1"/>
    </vehicle>
    <vehicle id="flow10_bin4.5" type="motorbike" depart="312.07">
        <route edges="PVB_J6_J3 PVB_J3_J1"/>
    </vehicle>
    <vehicle id="flow5_bin4.0" type="car" depart="312.58">
        <route edges="HQC_J2_J3 HQC_J3_J4"/>
    </vehicle>
    <vehicle id="flow10_bin4.6" type="motorbike" depart="313.71">
        <route edges="PVB_J6_J3 PVB_J3_J1"/>
    </vehicle>
    <vehicle id="flow10_bin4.7" type="motorbike" depart="313.86">
        <route edges="PVB_J6_J3 PVB_J3_J1"/>
    </vehicle>
    <vehicle id="flow10_bin4.8" type="motorbike" depart="315.40">
        <route edges="PVB_J6_J3 PVB_J3_J1"/>
    </vehicle>
    <vehicle id="flow6_bin4.1" type="motorbike" depart="315.48">
        <route edges="HQC_J2_J3 HQC_J3_J4"/>
    </vehicle>
    <vehicle id="flow14_bin4.5" type="motorbike" depart="318.86">
        <route edges="PVB_J0_J3 PVB_J3_J5"/>
    </vehicle>
    <vehicle id="flow9_bin4.2" type="car" depart="326.40">
        <route edges="PVB_J6_J3 PVB_J3_J1"/>
    </vehicle>
    <vehicle id="flow10_bin4.9" type="motorbike" depart="327.05">
        <route edges="PVB_J6_J3 HQC_J3_J2"/>
    </vehicle>
    <vehicle id="flow14_bin4.6" type="motorbike" depart="327.75">
        <route edges="PVB_J0_J3 HQC_J3_J4"/>
    </vehicle>
    <vehicle id="flow10_bin4.10" type="motorbike" depart="328.24">
        <route edges="PVB_J6_J3 PVB_J3_J1"/>
    </vehicle>
    <vehicle id="flow10_bin4.11" type="motorbike" depart="328.64">
        <route edges="PVB_J6_J3 PVB_J3_J1"/>
    </vehicle>
    <vehicle id="flow14_bin4.7" type="motorbike" depart="330.09">
        <route edges="PVB_J0_J3 PVB_J3_J5"/>
    </vehicle>
    <vehicle id="flow10_bin4.12" type="motorbike" depart="330.16">
        <route edges="PVB_J6_J3 PVB_J3_J1"/>
    </vehicle>
    <vehicle id="flow1_bin4.0" type="car" depart="330.63">
        <route edges="HQC_J4_J3 PVB_J3_J5"/>
    </vehicle>
    <vehicle id="flow13_bin4.0" type="car" depart="332.95">
        <route edges="PVB_J0_J3 PVB_J3_J5"/>
    </vehicle>
    <vehicle id="flow9_bin4.3" type="car" depart="333.13">
        <route edges="PVB_J6_J3 HQC_J3_J2"/>
    </vehicle>
    <vehicle id="flow14_bin4.8" type="motorbike" depart="333.21">
        <route edges="PVB_J0_J3 PVB_J3_J5"/>
    </vehicle>
    <vehicle id="flow10_bin4.13" type="motorbike" depart="334.02">
        <route edges="PVB_J6_J3 PVB_J3_J1"/>
    </vehicle>
    <vehicle id="flow10_bin4.14" type="motorbike" depart="334.66">
        <route edges="PVB_J6_J3 PVB_J3_J1"/>
    </vehicle>
    <vehicle id="flow10_bin4.15" type="motorbike" depart="335.13">
        <route edges="PVB_J6_J3 PVB_J3_J1"/>
    </vehicle>
    <vehicle id="flow14_bin4.9" type="motorbike" depart="336.10">
        <route edges="PVB_J0_J3 PVB_J3_J5"/>
    </vehicle>
    <vehicle id="flow10_bin4.16" type="motorbike" depart="337.48">
        <route edges="PVB_J6_J3 PVB_J3_J1"/>
    </vehicle>
    <vehicle id="flow10_bin4.17" type="motorbike" depart="338.65">
        <route edges="PVB_J6_J3 PVB_J3_J1"/>
    </vehicle>
    <vehicle id="flow10_bin4.18" type="motorbike" depart="341.98">
        <route edges="PVB_J6_J3 HQC_J3_J2"/>
    </vehicle>
    <vehicle id="flow14_bin4.10" type="motorbike" depart="342.34">
        <route edges="PVB_J0_J3 PVB_J3_J5"/>
    </vehicle>
    <vehicle id="flow10_bin4.19" type="motorbike" depart="342.94">
        <route edges="PVB_J6_J3 HQC_J3_J4"/>
    </vehicle>
    <vehicle id="flow14_bin4.11" type="motorbike" depart="343.44">
        <route edges="PVB_J0_J3 PVB_J3_J5"/>
    </vehicle>
    <vehicle id="flow13_bin4.1" type="car" depart="345.47">
        <route edges="PVB_J0_J3 HQC_J3_J4"/>
    </vehicle>
    <vehicle id="flow13_bin4.2" type="car" depart="345.98">
        <route edges="PVB_J0_J3 PVB_J3_J5"/>
    </vehicle>
    <vehicle id="flow10_bin4.20" type="motorbike" depart="346.28">
        <route edges="PVB_J6_J3 PVB_J3_J1"/>
    </vehicle>
    <vehicle id="flow9_bin4.4" type="car" depart="347.25">
        <route edges="PVB_J6_J3 PVB_J3_J1"/>
    </vehicle>
    <vehicle id="flow10_bin4.21" type="motorbike" depart="351.55">
        <route edges="PVB_J6_J3 HQC_J3_J4"/>
    </vehicle>
    <vehicle id="flow6_bin4.2" type="motorbike" depart="351.58">
        <route edges="HQC_J2_J3 PVB_J3_J1"/>
    </vehicle>
    <vehicle id="flow6_bin4.3" type="motorbike" depart="351.62">
        <route edges="HQC_J2_J3 HQC_J3_J4"/>
    </vehicle>
    <vehicle id="flow14_bin4.12" type="motorbike" depart="352.91">
        <route edges="PVB_J0_J3 PVB_J3_J5"/>
    </vehicle>
    <vehicle id="flow14_bin4.13" type="motorbike" depart="355.14">
        <route edges="PVB_J0_J3 PVB_J3_J5"/>
    </vehicle>
    <vehicle id="flow14_bin4.14" type="motorbike" depart="355.68">
        <route edges="PVB_J0_J3 HQC_J3_J2"/>
    </vehicle>
    <vehicle id="flow14_bin4.15" type="motorbike" depart="355.97">
        <route edges="PVB_J0_J3 HQC_J3_J2"/>
    </vehicle>
    <vehicle id="flow2_bin4.1" type="motorbike" depart="358.59">
        <route edges="HQC_J4_J3 HQC_J3_J2"/>
    </vehicle>
    <vehicle id="flow14_bin4.16" type="motorbike" depart="359.00">
        <route edges="PVB_J0_J3 HQC_J3_J4"/>
    </vehicle>
    <vehicle id="flow10_bin5.0" type="motorbike" depart="360.65">
        <route edges="PVB_J6_J3 PVB_J3_J1"/>
    </vehicle>
    <vehicle id="flow14_bin5.0" type="motorbike" depart="360.80">
        <route edges="PVB_J0_J3 PVB_J3_J5"/>
    </vehicle>
    <vehicle id="flow10_bin5.1" type="motorbike" depart="360.82">
        <route edges="PVB_J6_J3 PVB_J3_J1"/>
    </vehicle>
    <vehicle id="flow10_bin5.2" type="motorbike" depart="361.10">
        <route edges="PVB_J6_J3 PVB_J3_J1"/>
    </vehicle>
    <vehicle id="flow14_bin5.1" type="motorbike" depart="363.11">
        <route edges="PVB_J0_J3 PVB_J3_J5"/>
    </vehicle>
    <vehicle id="flow6_bin5.0" type="motorbike" depart="363.84">
        <route edges="HQC_J2_J3 PVB_J3_J1"/>
    </vehicle>
    <vehicle id="flow10_bin5.3" type="motorbike" depart="364.65">
        <route edges="PVB_J6_J3 HQC_J3_J4"/>
    </vehicle>
    <vehicle id="flow6_bin5.1" type="motorbike" depart="364.74">
        <route edges="HQC_J2_J3 HQC_J3_J4"/>
    </vehicle>
    <vehicle id="flow10_bin5.4" type="motorbike" depart="365.27">
        <route edges="PVB_J6_J3 PVB_J3_J1"/>
    </vehicle>
    <vehicle id="flow10_bin5.5" type="motorbike" depart="366.54">
        <route edges="PVB_J6_J3 PVB_J3_J1"/>
    </vehicle>
    <vehicle id="flow14_bin5.2" type="motorbike" depart="367.01">
        <route edges="PVB_J0_J3 HQC_J3_J4"/>
    </vehicle>
    <vehicle id="flow14_bin5.3" type="motorbike" depart="367.90">
        <route edges="PVB_J0_J3 PVB_J3_J5"/>
    </vehicle>
    <vehicle id="flow2_bin5.0" type="motorbike" depart="371.40">
        <route edges="HQC_J4_J3 HQC_J3_J2"/>
    </vehicle>
    <vehicle id="flow14_bin5.4" type="motorbike" depart="372.76">
        <route edges="PVB_J0_J3 PVB_J3_J5"/>
    </vehicle>
    <vehicle id="flow2_bin5.1" type="motorbike" depart="374.12">
        <route edges="HQC_J4_J3 PVB_J3_J5"/>
    </vehicle>
    <vehicle id="flow14_bin5.5" type="motorbike" depart="374.66">
        <route edges="PVB_J0_J3 PVB_J3_J5"/>
    </vehicle>
    <vehicle id="flow2_bin5.2" type="motorbike" depart="375.04">
        <route edges="HQC_J4_J3 PVB_J3_J5"/>
    </vehicle>
    <vehicle id="flow14_bin5.6" type="motorbike" depart="376.06">
        <route edges="PVB_J0_J3 HQC_J3_J4"/>
    </vehicle>
    <vehicle id="flow10_bin5.6" type="motorbike" depart="376.87">
        <route edges="PVB_J6_J3 PVB_J3_J1"/>
    </vehicle>
    <vehicle id="flow10_bin5.7" type="motorbike" depart="377.50">
        <route edges="PVB_J6_J3 PVB_J3_J1"/>
    </vehicle>
    <vehicle id="flow14_bin5.7" type="motorbike" depart="382.71">
        <route edges="PVB_J0_J3 PVB_J3_J5"/>
    </vehicle>
    <vehicle id="flow13_bin5.0" type="car" depart="382.90">
        <route edges="PVB_J0_J3 PVB_J3_J5"/>
    </vehicle>
    <vehicle id="flow10_bin5.8" type="motorbike" depart="384.98">
        <route edges="PVB_J6_J3 PVB_J3_J1"/>
    </vehicle>
    <vehicle id="flow10_bin5.9" type="motorbike" depart="386.67">
        <route edges="PVB_J6_J3 PVB_J3_J1"/>
    </vehicle>
    <vehicle id="flow13_bin5.1" type="car" depart="387.26">
        <route edges="PVB_J0_J3 HQC_J3_J4"/>
    </vehicle>
    <vehicle id="flow9_bin5.0" type="car" depart="387.86">
        <route edges="PVB_J6_J3 HQC_J3_J4"/>
    </vehicle>
    <vehicle id="flow10_bin5.10" type="motorbike" depart="388.31">
        <route edges="PVB_J6_J3 PVB_J3_J1"/>
    </vehicle>
    <vehicle id="flow6_bin5.2" type="motorbike" depart="389.98">
        <route edges="HQC_J2_J3 HQC_J3_J4"/>
    </vehicle>
    <vehicle id="flow14_bin5.8" type="motorbike" depart="390.37">
        <route edges="PVB_J0_J3 PVB_J3_J5"/>
    </vehicle>
    <vehicle id="flow10_bin5.11" type="motorbike" depart="392.75">
        <route edges="PVB_J6_J3 PVB_J3_J1"/>
    </vehicle>
    <vehicle id="flow2_bin5.3" type="motorbike" depart="393.12">
        <route edges="HQC_J4_J3 PVB_J3_J5"/>
    </vehicle>
    <vehicle id="flow10_bin5.12" type="motorbike" depart="393.79">
        <route edges="PVB_J6_J3 PVB_J3_J1"/>
    </vehicle>
    <vehicle id="flow14_bin5.9" type="motorbike" depart="394.15">
        <route edges="PVB_J0_J3 PVB_J3_J5"/>
    </vehicle>
    <vehicle id="flow10_bin5.13" type="motorbike" depart="394.69">
        <route edges="PVB_J6_J3 PVB_J3_J1"/>
    </vehicle>
    <vehicle id="flow13_bin5.2" type="car" depart="395.95">
        <route edges="PVB_J0_J3 PVB_J3_J5"/>
    </vehicle>
    <vehicle id="flow14_bin5.10" type="motorbike" depart="396.02">
        <route edges="PVB_J0_J3 PVB_J3_J5"/>
    </vehicle>
    <vehicle id="flow9_bin5.1" type="car" depart="398.04">
        <route edges="PVB_J6_J3 HQC_J3_J4"/>
    </vehicle>
    <vehicle id="flow14_bin5.11" type="motorbike" depart="398.44">
        <route edges="PVB_J0_J3 PVB_J3_J5"/>
    </vehicle>
    <vehicle id="flow2_bin5.4" type="motorbike" depart="398.68">
        <route edges="HQC_J4_J3 PVB_J3_J5"/>
    </vehicle>
    <vehicle id="flow2_bin5.5" type="motorbike" depart="399.99">
        <route edges="HQC_J4_J3 PVB_J3_J5"/>
    </vehicle>
    <vehicle id="flow10_bin5.14" type="motorbike" depart="400.74">
        <route edges="PVB_J6_J3 PVB_J3_J1"/>
    </vehicle>
    <vehicle id="flow6_bin5.3" type="motorbike" depart="400.98">
        <route edges="HQC_J2_J3 HQC_J3_J4"/>
    </vehicle>
    <vehicle id="flow10_bin5.15" type="motorbike" depart="402.40">
        <route edges="PVB_J6_J3 PVB_J3_J1"/>
    </vehicle>
    <vehicle id="flow14_bin5.12" type="motorbike" depart="402.43">
        <route edges="PVB_J0_J3 HQC_J3_J4"/>
    </vehicle>
    <vehicle id="flow6_bin5.4" type="motorbike" depart="402.43">
        <route edges="HQC_J2_J3 HQC_J3_J4"/>
    </vehicle>
    <vehicle id="flow9_bin5.2" type="car" depart="403.35">
        <route edges="PVB_J6_J3 PVB_J3_J1"/>
    </vehicle>
    <vehicle id="flow6_bin5.5" type="motorbike" depart="407.01">
        <route edges="HQC_J2_J3 HQC_J3_J4"/>
    </vehicle>
    <vehicle id="flow14_bin5.13" type="motorbike" depart="407.94">
        <route edges="PVB_J0_J3 PVB_J3_J5"/>
    </vehicle>
    <vehicle id="flow10_bin5.16" type="motorbike" depart="410.29">
        <route edges="PVB_J6_J3 HQC_J3_J4"/>
    </vehicle>
    <vehicle id="flow14_bin5.14" type="motorbike" depart="411.28">
        <route edges="PVB_J0_J3 PVB_J3_J5"/>
    </vehicle>
    <vehicle id="flow5_bin5.0" type="car" depart="411.85">
        <route edges="HQC_J2_J3 HQC_J3_J4"/>
    </vehicle>
    <vehicle id="flow10_bin5.17" type="motorbike" depart="413.17">
        <route edges="PVB_J6_J3 PVB_J3_J1"/>
    </vehicle>
    <vehicle id="flow9_bin5.3" type="car" depart="414.34">
        <route edges="PVB_J6_J3 PVB_J3_J1"/>
    </vehicle>
    <vehicle id="flow14_bin5.15" type="motorbike" depart="414.90">
        <route edges="PVB_J0_J3 PVB_J3_J5"/>
    </vehicle>
    <vehicle id="flow14_bin5.16" type="motorbike" depart="415.70">
        <route edges="PVB_J0_J3 PVB_J3_J5"/>
    </vehicle>
    <vehicle id="flow10_bin5.18" type="motorbike" depart="415.97">
        <route edges="PVB_J6_J3 PVB_J3_J1"/>
    </vehicle>
    <vehicle id="flow6_bin5.6" type="motorbike" depart="416.41">
        <route edges="HQC_J2_J3 HQC_J3_J4"/>
    </vehicle>
    <vehicle id="flow10_bin5.19" type="motorbike" depart="417.27">
        <route edges="PVB_J6_J3 PVB_J3_J1"/>
    </vehicle>
    <vehicle id="flow10_bin5.20" type="motorbike" depart="417.31">
        <route edges="PVB_J6_J3 PVB_J3_J1"/>
    </vehicle>
    <vehicle id="flow14_bin5.17" type="motorbike" depart="417.77">
        <route edges="PVB_J0_J3 PVB_J3_J5"/>
    </vehicle>
    <vehicle id="flow10_bin5.21" type="motorbike" depart="419.09">
        <route edges="PVB_J6_J3 PVB_J3_J1"/>
    </vehicle>
    <vehicle id="flow9_bin5.4" type="car" depart="420.68">
        <route edges="PVB_J6_J3 PVB_J3_J1"/>
    </vehicle>
    <vehicle id="flow14_bin5.18" type="motorbike" depart="422.01">
        <route edges="PVB_J0_J3 PVB_J3_J5"/>
    </vehicle>
    <vehicle id="flow14_bin5.19" type="motorbike" depart="424.09">
        <route edges="PVB_J0_J3 HQC_J3_J4"/>
    </vehicle>
    <vehicle id="flow10_bin5.22" type="motorbike" depart="425.06">
        <route edges="PVB_J6_J3 PVB_J3_J1"/>
    </vehicle>
    <vehicle id="flow10_bin5.23" type="motorbike" depart="425.34">
        <route edges="PVB_J6_J3 PVB_J3_J1"/>
    </vehicle>
    <vehicle id="flow13_bin5.3" type="car" depart="427.38">
        <route edges="PVB_J0_J3 PVB_J3_J5"/>
    </vehicle>
    <vehicle id="flow14_bin5.20" type="motorbike" depart="428.02">
        <route edges="PVB_J0_J3 PVB_J3_J5"/>
    </vehicle>
    <vehicle id="flow10_bin6.0" type="motorbike" depart="432.81">
        <route edges="PVB_J6_J3 PVB_J3_J1"/>
    </vehicle>
    <vehicle id="flow9_bin6.0" type="car" depart="433.27">
        <route edges="PVB_J6_J3 PVB_J3_J1"/>
    </vehicle>
    <vehicle id="flow14_bin6.0" type="motorbike" depart="434.01">
        <route edges="PVB_J0_J3 PVB_J3_J5"/>
    </vehicle>
    <vehicle id="flow14_bin6.1" type="motorbike" depart="434.52">
        <route edges="PVB_J0_J3 HQC_J3_J4"/>
    </vehicle>
    <vehicle id="flow10_bin6.1" type="motorbike" depart="437.49">
        <route edges="PVB_J6_J3 PVB_J3_J1"/>
    </vehicle>
    <vehicle id="flow10_bin6.2" type="motorbike" depart="437.59">
        <route edges="PVB_J6_J3 PVB_J3_J1"/>
    </vehicle>
    <vehicle id="flow14_bin6.2" type="motorbike" depart="437.97">
        <route edges="PVB_J0_J3 PVB_J3_J5"/>
    </vehicle>
    <vehicle id="flow9_bin6.1" type="car" depart="440.11">
        <route edges="PVB_J6_J3 PVB_J3_J1"/>
    </vehicle>
    <vehicle id="flow10_bin6.3" type="motorbike" depart="441.22">
        <route edges="PVB_J6_J3 PVB_J3_J1"/>
    </vehicle>
    <vehicle id="flow14_bin6.3" type="motorbike" depart="444.83">
        <route edges="PVB_J0_J3 HQC_J3_J4"/>
    </vehicle>
    <vehicle id="flow14_bin6.4" type="motorbike" depart="445.28">
        <route edges="PVB_J0_J3 PVB_J3_J5"/>
    </vehicle>
    <vehicle id="flow2_bin6.0" type="motorbike" depart="446.32">
        <route edges="HQC_J4_J3 PVB_J3_J5"/>
    </vehicle>
    <vehicle id="flow14_bin6.5" type="motorbike" depart="446.82">
        <route edges="PVB_J0_J3 PVB_J3_J5"/>
    </vehicle>
    <vehicle id="flow10_bin6.4" type="motorbike" depart="447.45">
        <route edges="PVB_J6_J3 PVB_J3_J1"/>
    </vehicle>
    <vehicle id="flow9_bin6.2" type="car" depart="449.83">
        <route edges="PVB_J6_J3 PVB_J3_J1"/>
    </vehicle>
    <vehicle id="flow10_bin6.5" type="motorbike" depart="449.86">