<?xml version="1.0" encoding="UTF-8"?>

<!-- generated on 2025-06-18 20:24:25 by Eclipse SUMO jtrrouter Version 1.22.0
<jtrrouterConfiguration xmlns:xsi="http://www.w3.org/2001/XMLSchema-instance" xsi:noNamespaceSchemaLocation="http://sumo.dlr.de/xsd/jtrrouterConfiguration.xsd">

    <input>
        <net-file value=".\../datn.net.xml"/>
        <additional-files value=".\./vehicles.vtype.xml"/>
        <route-files value=".\./weibull_flows.xml"/>
        <turn-ratio-files value=".\./datn.turns.xml"/>
    </input>

    <output>
        <output-file value=".\../1routes.rou.xml"/>
    </output>

    <processing>
        <randomize-flows value="true"/>
        <sink-edges value="HQC_J3_J2,PVB_J3_J5,PVB_J3_J1,HQC_J3_J4"/>
    </processing>

</jtrrouterConfiguration>
-->

<routes xmlns:xsi="http://www.w3.org/2001/XMLSchema-instance" xsi:noNamespaceSchemaLocation="http://sumo.dlr.de/xsd/routes_file.xsd">
    <vType id="motorbike" length="2.20" minGap="0.50" maxSpeed="16.67" speedFactor="normc(1.10,0.20,0.80,1.40)" vClass="motorcycle" emissionClass="HBEFA3/PC_G_EU4" width="0.80" height="1.50" color="yellow" laneChangeModel="SL2015" lcStrategic="2.0" lcCooperative="0.3" lcSpeedGain="2.0" lcKeepRight="0.2" lcSublane="2.0" lcPushy="1.5" lcAssertive="2.0" lcImpatience="0.8" lcTimeToImpatience="10.0" lcAccelLat="2.0" lcTurnAlignmentDistance="15.0" accel="2.5" decel="4.5" emergencyDecel="6.0" apparentDecel="3.5" sigma="0.8" tau="0.5"/>
    <vehicle id="flow10_bin0.0" type="motorbike" depart="7.58">
        <route edges="PVB_J6_J3 HQC_J3_J4"/>
    </vehicle>
    <vehicle id="flow10_bin0.1" type="motorbike" depart="9.51">
        <route edges="PVB_J6_J3 PVB_J3_J1"/>
    </vehicle>
    <vehicle id="flow14_bin0.0" type="motorbike" depart="9.74">
        <route edges="PVB_J0_J3 HQC_J3_J4"/>
    </vehicle>
    <vType id="car" length="4.50" minGap="1.00" maxSpeed="22.22" speedFactor="normc(1.00,0.15,0.70,1.30)" vClass="passenger" emissionClass="HBEFA3/PC_G_EU5" width="1.80" height="1.50" color="white" laneChangeModel="SL2015" lcStrategic="1.0" lcCooperative="1.0" lcSpeedGain="1.0" lcKeepRight="1.0" lcSublane="1.0" lcPushy="0.5" lcAssertive="1.0" lcImpatience="0.3" lcTimeToImpatience="20.0" lcAccelLat="1.5" lcTurnAlignmentDistance="25.0" accel="2.0" decel="4.0" emergencyDecel="5.0" apparentDecel="3.0" sigma="0.5" tau="0.7"/>
    <vehicle id="flow13_bin0.0" type="car" depart="12.69">
        <route edges="PVB_J0_J3 HQC_J3_J2"/>
    </vehicle>
    <vehicle id="flow14_bin0.1" type="motorbike" depart="17.24">
        <route edges="PVB_J0_J3 PVB_J3_J5"/>
    </vehicle>
    <vehicle id="flow10_bin0.2" type="motorbike" depart="35.35">
        <route edges="PVB_J6_J3 PVB_J3_J1"/>
    </vehicle>
    <vehicle id="flow14_bin0.2" type="motorbike" depart="38.16">
        <route edges="PVB_J0_J3 PVB_J3_J5"/>
    </vehicle>
    <vehicle id="flow14_bin0.3" type="motorbike" depart="66.58">
        <route edges="PVB_J0_J3 HQC_J3_J2"/>
    </vehicle>
    <vehicle id="flow10_bin1.0" type="motorbike" depart="79.91">
        <route edges="PVB_J6_J3 HQC_J3_J4"/>
    </vehicle>
    <vehicle id="flow10_bin1.1" type="motorbike" depart="80.27">
        <route edges="PVB_J6_J3 PVB_J3_J1"/>
    </vehicle>
    <vehicle id="flow10_bin1.2" type="motorbike" depart="87.39">
        <route edges="PVB_J6_J3 PVB_J3_J1"/>
    </vehicle>
    <vehicle id="flow14_bin1.0" type="motorbike" depart="88.83">
        <route edges="PVB_J0_J3 PVB_J3_J5"/>
    </vehicle>
    <vehicle id="flow14_bin1.1" type="motorbike" depart="90.04">
        <route edges="PVB_J0_J3 HQC_J3_J4"/>
    </vehicle>
    <vehicle id="flow13_bin1.0" type="car" depart="90.39">
        <route edges="PVB_J0_J3 PVB_J3_J5"/>
    </vehicle>
    <vehicle id="flow14_bin1.2" type="motorbike" depart="98.85">
        <route edges="PVB_J0_J3 PVB_J3_J5"/>
    </vehicle>
    <vehicle id="flow14_bin1.3" type="motorbike" depart="102.99">
        <route edges="PVB_J0_J3 PVB_J3_J5"/>
    </vehicle>
    <vehicle id="flow13_bin1.1" type="car" depart="105.45">
        <route edges="PVB_J0_J3 HQC_J3_J2"/>
    </vehicle>
    <vehicle id="flow14_bin1.4" type="motorbike" depart="109.69">
        <route edges="PVB_J0_J3 HQC_J3_J4"/>
    </vehicle>
    <vehicle id="flow14_bin1.5" type="motorbike" depart="121.84">
        <route edges="PVB_J0_J3 PVB_J3_J5"/>
    </vehicle>
    <vehicle id="flow14_bin1.6" type="motorbike" depart="124.36">
        <route edges="PVB_J0_J3 PVB_J3_J5"/>
    </vehicle>
    <vehicle id="flow10_bin1.3" type="motorbike" depart="127.65">
        <route edges="PVB_J6_J3 PVB_J3_J1"/>
    </vehicle>
    <vehicle id="flow10_bin1.4" type="motorbike" depart="128.85">
        <route edges="PVB_J6_J3 PVB_J3_J1"/>
    </vehicle>
    <vehicle id="flow14_bin1.7" type="motorbike" depart="140.48">
        <route edges="PVB_J0_J3 PVB_J3_J5"/>
    </vehicle>
    <vehicle id="flow14_bin2.0" type="motorbike" depart="155.31">
        <route edges="PVB_J0_J3 PVB_J3_J5"/>
    </vehicle>
    <vehicle id="flow14_bin2.1" type="motorbike" depart="163.06">
        <route edges="PVB_J0_J3 PVB_J3_J5"/>
    </vehicle>
    <vehicle id="flow14_bin2.2" type="motorbike" depart="164.10">
        <route edges="PVB_J0_J3 PVB_J3_J5"/>
    </vehicle>
    <vehicle id="flow14_bin2.3" type="motorbike" depart="187.24">
        <route edges="PVB_J0_J3 PVB_J3_J5"/>
    </vehicle>
    <vehicle id="flow9_bin2.0" type="car" depart="202.77">
        <route edges="PVB_J6_J3 PVB_J3_J1"/>
    </vehicle>
    <vehicle id="flow14_bin2.4" type="motorbike" depart="204.23">
        <route edges="PVB_J0_J3 PVB_J3_J5"/>
    </vehicle>
    <vehicle id="flow10_bin2.0" type="motorbike" depart="205.96">
        <route edges="PVB_J6_J3 PVB_J3_J1"/>
    </vehicle>
    <vType id="truck" length="8.00" minGap="2.50" maxSpeed="19.44" speedFactor="normc(0.90,0.10,0.70,1.10)" vClass="truck" emissionClass="HBEFA3/HDV" width="2.20" height="2.80" color="green" containerCapacity="20" laneChangeModel="SL2015" lcStrategic="0.6" lcCooperative="1.0" lcSpeedGain="0.6" lcKeepRight="1.0" lcSublane="0.5" lcPushy="0.2" lcAssertive="0.6" lcImpatience="0.1" lcTimeToImpatience="120.0" lcAccelLat="0.8" lcTurnAlignmentDistance="50.0" accel="1.0" decel="3.0" emergencyDecel="3.5" apparentDecel="2.0" sigma="0.3" tau="1.2"/>
    <vehicle id="flow16_bin2.0" type="truck" depart="213.59">
        <route edges="PVB_J0_J3 HQC_J3_J4"/>
    </vehicle>
    <vehicle id="flow5_bin3.0" type="car" depart="220.76">
        <route edges="HQC_J2_J3 PVB_J3_J5"/>
    </vehicle>
    <vehicle id="flow6_bin3.0" type="motorbike" depart="223.20">
        <route edges="HQC_J2_J3 HQC_J3_J4"/>
    </vehicle>
    <vehicle id="flow14_bin3.0" type="motorbike" depart="226.41">
        <route edges="PVB_J0_J3 HQC_J3_J2"/>
    </vehicle>
    <vehicle id="flow14_bin3.1" type="motorbike" depart="229.11">
        <route edges="PVB_J0_J3 PVB_J3_J5"/>
    </vehicle>
    <vehicle id="flow1_bin3.0" type="car" depart="229.47">
        <route edges="HQC_J4_J3 PVB_J3_J5"/>
    </vehicle>
    <vehicle id="flow9_bin3.0" type="car" depart="234.13">
        <route edges="PVB_J6_J3 HQC_J3_J4"/>
    </vehicle>
    <vehicle id="flow10_bin3.0" type="motorbike" depart="235.60">
        <route edges="PVB_J6_J3 HQC_J3_J2"/>
    </vehicle>
    <vehicle id="flow14_bin3.2" type="motorbike" depart="243.62">
        <route edges="PVB_J0_J3 HQC_J3_J2"/>
    </vehicle>
    <vehicle id="flow13_bin3.0" type="car" depart="246.47">
        <route edges="PVB_J0_J3 PVB_J3_J5"/>
    </vehicle>
    <vehicle id="flow14_bin3.3" type="motorbike" depart="248.80">
        <route edges="PVB_J0_J3 HQC_J3_J2"/>
    </vehicle>
    <vehicle id="flow13_bin3.1" type="car" depart="251.32">
        <route edges="PVB_J0_J3 PVB_J3_J5"/>
    </vehicle>
    <vehicle id="flow14_bin3.4" type="motorbike" depart="252.17">
        <route edges="PVB_J0_J3 PVB_J3_J5"/>
    </vehicle>
    <vehicle id="flow10_bin3.1" type="motorbike" depart="256.65">
        <route edges="PVB_J6_J3 PVB_J3_J1"/>
    </vehicle>
    <vehicle id="flow14_bin3.5" type="motorbike" depart="256.75">
        <route edges="PVB_J0_J3 PVB_J3_J5"/>
    </vehicle>
    <vehicle id="flow1_bin3.1" type="car" depart="259.21">
        <route edges="HQC_J4_J3 HQC_J3_J2"/>
    </vehicle>
    <vehicle id="flow14_bin3.6" type="motorbike" depart="262.91">
        <route edges="PVB_J0_J3 PVB_J3_J5"/>
    </vehicle>
    <vehicle id="flow14_bin3.7" type="motorbike" depart="264.05">
        <route edges="PVB_J0_J3 PVB_J3_J5"/>
    </vehicle>
    <vehicle id="flow14_bin3.8" type="motorbike" depart="264.66">
        <route edges="PVB_J0_J3 PVB_J3_J5"/>
    </vehicle>
    <vehicle id="flow9_bin3.1" type="car" depart="264.71">
        <route edges="PVB_J6_J3 PVB_J3_J1"/>
    </vehicle>
    <vehicle id="flow14_bin3.9" type="motorbike" depart="267.51">
        <route edges="PVB_J0_J3 PVB_J3_J5"/>
    </vehicle>
    <vehicle id="flow10_bin3.2" type="motorbike" depart="270.52">
        <route edges="PVB_J6_J3 PVB_J3_J1"/>
    </vehicle>
    <vehicle id="flow14_bin3.10" type="motorbike" depart="271.96">
        <route edges="PVB_J0_J3 PVB_J3_J5"/>
    </vehicle>
    <vehicle id="flow14_bin3.11" type="motorbike" depart="274.99">
        <route edges="PVB_J0_J3 HQC_J3_J4"/>
    </vehicle>
    <vehicle id="flow13_bin3.2" type="car" depart="275.27">
        <route edges="PVB_J0_J3 PVB_J3_J5"/>
    </vehicle>
    <vehicle id="flow10_bin3.3" type="motorbike" depart="282.88">
        <route edges="PVB_J6_J3 PVB_J3_J1"/>
    </vehicle>
    <vehicle id="flow6_bin3.1" type="motorbike" depart="285.48">
        <route edges="HQC_J2_J3 HQC_J3_J4"/>
    </vehicle>
    <vehicle id="flow14_bin4.0" type="motorbike" depart="288.79">
        <route edges="PVB_J0_J3 HQC_J3_J4"/>
    </vehicle>
    <vehicle id="flow14_bin4.1" type="motorbike" depart="290.59">
        <route edges="PVB_J0_J3 HQC_J3_J4"/>
    </vehicle>
    <vehicle id="flow10_bin4.0" type="motorbike" depart="291.52">
        <route edges="PVB_J6_J3 HQC_J3_J4"/>
    </vehicle>
    <vehicle id="flow1_bin4.0" type="car" depart="292.07">
        <route edges="HQC_J4_J3 PVB_J3_J5"/>
    </vehicle>
    <vehicle id="flow13_bin4.0" type="car" depart="292.46">
        <route edges="PVB_J0_J3 PVB_J3_J5"/>
    </vehicle>
    <vehicle id="flow14_bin4.2" type="motorbike" depart="293.06">
        <route edges="PVB_J0_J3 PVB_J3_J5"/>
    </vehicle>
    <vehicle id="flow1_bin4.1" type="car" depart="293.40">
        <route edges="HQC_J4_J3 PVB_J3_J5"/>
    </vehicle>
    <vehicle id="flow14_bin4.3" type="motorbike" depart="294.36">
        <route edges="PVB_J0_J3 HQC_J3_J2"/>
    </vehicle>
    <vehicle id="flow6_bin4.0" type="motorbike" depart="294.63">
        <route edges="HQC_J2_J3 PVB_J3_J5"/>
    </vehicle>
    <vehicle id="flow14_bin4.4" type="motorbike" depart="294.87">
        <route edges="PVB_J0_J3 PVB_J3_J5"/>
    </vehicle>
    <vehicle id="flow10_bin4.1" type="motorbike" depart="295.38">
        <route edges="PVB_J6_J3 HQC_J3_J4"/>
    </vehicle>
    <vehicle id="flow14_bin4.5" type="motorbike" depart="295.94">
        <route edges="PVB_J0_J3 PVB_J3_J5"/>
    </vehicle>
    <vehicle id="flow13_bin4.1" type="car" depart="305.22">
        <route edges="PVB_J0_J3 PVB_J3_J5"/>
    </vehicle>
    <vehicle id="flow6_bin4.1" type="motorbike" depart="305.46">
        <route edges="HQC_J2_J3 PVB_J3_J5"/>
    </vehicle>
    <vehicle id="flow14_bin4.6" type="motorbike" depart="306.62">
        <route edges="PVB_J0_J3 PVB_J3_J5"/>
    </vehicle>
    <vehicle id="flow6_bin4.2" type="motorbike" depart="308.63">
        <route edges="HQC_J2_J3 HQC_J3_J4"/>
    </vehicle>
    <vehicle id="flow14_bin4.7" type="motorbike" depart="312.58">
        <route edges="PVB_J0_J3 PVB_J3_J5"/>
    </vehicle>
    <vehicle id="flow14_bin4.8" type="motorbike" depart="315.48">
        <route edges="PVB_J0_J3 PVB_J3_J5"/>
    </vehicle>
    <vehicle id="flow13_bin4.2" type="car" depart="318.42">
        <route edges="PVB_J0_J3 PVB_J3_J5"/>
    </vehicle>
    <vehicle id="flow10_bin4.2" type="motorbike" depart="319.30">
        <route edges="PVB_J6_J3 PVB_J3_J1"/>
    </vehicle>
    <vehicle id="flow10_bin4.3" type="motorbike" depart="320.43">
        <route edges="PVB_J6_J3 PVB_J3_J1"/>
    </vehicle>
    <vehicle id="flow13_bin4.3" type="car" depart="320.55">
        <route edges="PVB_J0_J3 PVB_J3_J5"/>
    </vehicle>
    <vehicle id="flow13_bin4.4" type="car" depart="322.39">
        <route edges="PVB_J0_J3 PVB_J3_J5"/>
    </vehicle>
    <vehicle id="flow10_bin4.4" type="motorbike" depart="325.16">
        <route edges="PVB_J6_J3 PVB_J3_J1"/>
    </vehicle>
    <vehicle id="flow14_bin4.9" type="motorbike" depart="326.40">
        <route edges="PVB_J0_J3 PVB_J3_J5"/>
    </vehicle>
    <vehicle id="flow14_bin4.10" type="motorbike" depart="328.24">
        <route edges="PVB_J0_J3 PVB_J3_J5"/>
    </vehicle>
    <vehicle id="flow14_bin4.11" type="motorbike" depart="328.64">
        <route edges="PVB_J0_J3 HQC_J3_J2"/>
    </vehicle>
    <vehicle id="flow9_bin4.0" type="car" depart="329.55">
        <route edges="PVB_J6_J3 PVB_J3_J1"/>
    </vehicle>
    <vehicle id="flow14_bin4.12" type="motorbike" depart="330.63">
        <route edges="PVB_J0_J3 PVB_J3_J5"/>
    </vehicle>
    <vehicle id="flow10_bin4.5" type="motorbike" depart="331.64">
        <route edges="PVB_J6_J3 PVB_J3_J1"/>
    </vehicle>
    <vehicle id="flow14_bin4.13" type="motorbike" depart="333.13">
        <route edges="PVB_J0_J3 PVB_J3_J5"/>
    </vehicle>
    <vehicle id="flow14_bin4.14" type="motorbike" depart="334.04">
        <route edges="PVB_J0_J3 PVB_J3_J5"/>
    </vehicle>
    <vehicle id="flow14_bin4.15" type="motorbike" depart="341.98">
        <route edges="PVB_J0_J3 HQC_J3_J4"/>
    </vehicle>
    <vehicle id="flow13_bin4.5" type="car" depart="342.95">
        <route edges="PVB_J0_J3 PVB_J3_J5"/>
    </vehicle>
    <vehicle id="flow10_bin4.6" type="motorbike" depart="343.03">
        <route edges="PVB_J6_J3 HQC_J3_J2"/>
    </vehicle>
    <vehicle id="flow10_bin4.7" type="motorbike" depart="345.06">
        <route edges="PVB_J6_J3 HQC_J3_J4"/>
    </vehicle>
    <vehicle id="flow13_bin4.6" type="car" depart="345.85">
        <route edges="PVB_J0_J3 PVB_J3_J5"/>
    </vehicle>
    <vehicle id="flow9_bin4.1" type="car" depart="346.88">
        <route edges="PVB_J6_J3 PVB_J3_J1"/>
    </vehicle>
    <vehicle id="flow14_bin4.16" type="motorbike" depart="347.25">
        <route edges="PVB_J0_J3 HQC_J3_J2"/>
    </vehicle>
    <vehicle id="flow13_bin4.7" type="car" depart="351.41">
        <route edges="PVB_J0_J3 HQC_J3_J4"/>
    </vehicle>
    <vehicle id="flow14_bin4.17" type="motorbike" depart="351.58">
        <route edges="PVB_J0_J3 HQC_J3_J2"/>
    </vehicle>
    <vehicle id="flow14_bin4.18" type="motorbike" depart="351.62">
        <route edges="PVB_J0_J3 PVB_J3_J5"/>
    </vehicle>
    <vehicle id="flow13_bin4.8" type="car" depart="351.70">
        <route edges="PVB_J0_J3 PVB_J3_J5"/>
    </vehicle>
    <vehicle id="flow14_bin4.19" type="motorbike" depart="358.59">
        <route edges="PVB_J0_J3 PVB_J3_J5"/>
    </vehicle>
    <vehicle id="flow6_bin5.0" type="motorbike" depart="360.56">
        <route edges="HQC_J2_J3 PVB_J3_J1"/>
    </vehicle>
    <vehicle id="flow14_bin5.0" type="motorbike" depart="361.75">
        <route edges="PVB_J0_J3 PVB_J3_J5"/>
    </vehicle>
    <vehicle id="flow13_bin5.0" type="car" depart="363.84">
        <route edges="PVB_J0_J3 PVB_J3_J5"/>
    </vehicle>
    <vehicle id="flow16_bin5.0" type="truck" depart="363.84">
        <route edges="PVB_J0_J3 PVB_J3_J5"/>
    </vehicle>
    <vehicle id="flow14_bin5.1" type="motorbike" depart="364.74">
        <route edges="PVB_J0_J3 PVB_J3_J5"/>
    </vehicle>
    <vehicle id="flow10_bin5.0" type="motorbike" depart="369.82">
        <route edges="PVB_J6_J3 PVB_J3_J1"/>
    </vehicle>
    <vehicle id="flow14_bin5.2" type="motorbike" depart="371.40">
        <route edges="PVB_J0_J3 PVB_J3_J5"/>
    </vehicle>
    <vehicle id="flow9_bin5.0" type="car" depart="371.88">
        <route edges="PVB_J6_J3 PVB_J3_J1"/>
    </vehicle>
    <vehicle id="flow2_bin5.0" type="motorbike" depart="373.56">
        <route edges="HQC_J4_J3 PVB_J3_J5"/>
    </vehicle>
    <vehicle id="flow14_bin5.3" type="motorbike" depart="374.12">
        <route edges="PVB_J0_J3 PVB_J3_J5"/>
    </vehicle>
    <vehicle id="flow13_bin5.1" type="car" depart="374.19">
        <route edges="PVB_J0_J3 PVB_J3_J5"/>
    </vehicle>
    <vehicle id="flow10_bin5.1" type="motorbike" depart="374.36">
        <route edges="PVB_J6_J3 HQC_J3_J4"/>
    </vehicle>
    <vehicle id="flow14_bin5.4" type="motorbike" depart="375.04">
        <route edges="PVB_J0_J3 PVB_J3_J5"/>
    </vehicle>
    <vehicle id="flow14_bin5.5" type="motorbike" depart="376.72">
        <route edges="PVB_J0_J3 PVB_J3_J5"/>
    </vehicle>
    <vehicle id="flow9_bin5.1" type="car" depart="378.68">
        <route edges="PVB_J6_J3 PVB_J3_J1"/>
    </vehicle>
    <vehicle id="flow9_bin5.2" type="car" depart="384.07">
        <route edges="PVB_J6_J3 HQC_J3_J2"/>
    </vehicle>
    <vehicle id="flow10_bin5.2" type="motorbike" depart="385.71">
        <route edges="PVB_J6_J3 PVB_J3_J1"/>
    </vehicle>
    <vehicle id="flow10_bin5.3" type="motorbike" depart="385.86">
        <route edges="PVB_J6_J3 HQC_J3_J4"/>
    </vehicle>
    <vehicle id="flow10_bin5.4" type="motorbike" depart="387.40">
        <route edges="PVB_J6_J3 PVB_J3_J1"/>
    </vehicle>
    <vehicle id="flow14_bin5.6" type="motorbike" depart="389.98">
        <route edges="PVB_J0_J3 PVB_J3_J5"/>
    </vehicle>
    <vehicle id="flow13_bin5.2" type="car" depart="390.86">
        <route edges="PVB_J0_J3 HQC_J3_J4"/>
    </vehicle>
    <vehicle id="flow14_bin5.7" type="motorbike" depart="393.12">
        <route edges="PVB_J0_J3 PVB_J3_J5"/>
    </vehicle>
    <vehicle id="flow14_bin5.8" type="motorbike" depart="398.68">
        <route edges="PVB_J0_J3 HQC_J3_J4"/>
    </vehicle>
    <vehicle id="flow9_bin5.3" type="car" depart="399.05">
        <route edges="PVB_J6_J3 HQC_J3_J2"/>
    </vehicle>
    <vehicle id="flow14_bin5.9" type="motorbike" depart="399.75">
        <route edges="PVB_J0_J3 PVB_J3_J5"/>
    </vehicle>
    <vehicle id="flow14_bin5.10" type="motorbike" depart="399.99">
        <route edges="PVB_J0_J3 PVB_J3_J5"/>
    </vehicle>
    <vehicle id="flow14_bin5.11" type="motorbike" depart="400.98">
        <route edges="PVB_J0_J3 PVB_J3_J5"/>
    </vehicle>
    <vehicle id="flow13_bin5.3" type="car" depart="402.09">
        <route edges="PVB_J0_J3 PVB_J3_J5"/>
    </vehicle>
    <vehicle id="flow10_bin5.5" type="motorbike" depart="402.16">
        <route edges="PVB_J6_J3 PVB_J3_J1"/>
    </vehicle>
    <vehicle id="flow14_bin5.12" type="motorbike" depart="402.43">
        <route edges="PVB_J0_J3 PVB_J3_J5"/>
    </vehicle>
    <vehicle id="flow10_bin5.6" type="motorbike" depart="404.95">
        <route edges="PVB_J6_J3 HQC_J3_J2"/>
    </vehicle>
    <vehicle id="flow14_bin5.13" type="motorbike" depart="405.21">
        <route edges="PVB_J0_J3 PVB_J3_J5"/>
    </vehicle>
    <vehicle id="flow5_bin5.0" type="car" depart="406.02">
        <route edges="HQC_J2_J3 HQC_J3_J4"/>
    </vehicle>
    <vehicle id="flow2_bin5.1" type="motorbike" depart="406.66">
        <route edges="HQC_J4_J3 PVB_J3_J5"/>
    </vehicle>
    <vehicle id="flow6_bin5.1" type="motorbike" depart="407.13">
        <route edges="HQC_J2_J3 HQC_J3_J4"/>
    </vehicle>
    <vehicle id="flow14_bin5.14" type="motorbike" depart="408.10">
        <route edges="PVB_J0_J3 PVB_J3_J5"/>
    </vehicle>
    <vehicle id="flow10_bin5.7" type="motorbike" depart="409.48">
        <route edges="PVB_J6_J3 HQC_J3_J2"/>
    </vehicle>
    <vehicle id="flow5_bin5.1" type="car" depart="410.65">
        <route edges="HQC_J2_J3 PVB_J3_J5"/>
    </vehicle>
    <vehicle id="flow14_bin5.15" type="motorbike" depart="411.85">
        <route edges="PVB_J0_J3 PVB_J3_J5"/>
    </vehicle>
    <vehicle id="flow13_bin5.4" type="car" depart="414.34">
        <route edges="PVB_J0_J3 PVB_J3_J5"/>
    </vehicle>
    <vehicle id="flow9_bin5.4" type="car" depart="414.94">
        <route edges="PVB_J6_J3 PVB_J3_J1"/>
    </vehicle>
    <vehicle id="flow10_bin5.8" type="motorbike" depart="415.44">
        <route edges="PVB_J6_J3 PVB_J3_J1"/>
    </vehicle>
    <vehicle id="flow14_bin5.16" type="motorbike" depart="416.41">
        <route edges="PVB_J0_J3 PVB_J3_J5"/>
    </vehicle>
    <vehicle id="flow10_bin5.9" type="motorbike" depart="417.47">
        <route edges="PVB_J6_J3 PVB_J3_J1"/>
    </vehicle>
    <vehicle id="flow10_bin5.10" type="motorbike" depart="417.98">
        <route edges="PVB_J6_J3 HQC_J3_J2"/>
    </vehicle>
    <vehicle id="flow10_bin5.11" type="motorbike" depart="418.28">
        <route edges="PVB_J6_J3 PVB_J3_J1"/>
    </vehicle>
    <vehicle id="flow2_bin5.2" type="motorbike" depart="423.55">
        <route edges="HQC_J4_J3 HQC_J3_J2"/>
    </vehicle>
    <vehicle id="flow13_bin5.5" type="car" depart="424.91">
        <route edges="PVB_J0_J3 PVB_J3_J5"/>
    </vehicle>
    <vehicle id="flow14_bin5.17" type="motorbike" depart="427.14">
        <route edges="PVB_J0_J3 PVB_J3_J5"/>
    </vehicle>
    <vehicle id="flow13_bin5.6" type="car" depart="427.68">
        <route edges="PVB_J0_J3 PVB_J3_J5"/>
    </vehicle>
    <vehicle id="flow13_bin5.7" type="car" depart="427.97">
        <route edges="PVB_J0_J3 PVB_J3_J5"/>
    </vehicle>
    <vehicle id="flow14_bin5.18" type="motorbike" depart="431.00">
        <route edges="PVB_J0_J3 PVB_J3_J5"/>
    </vehicle>
    <vehicle id="flow14_bin6.0" type="motorbike" depart="433.15">
        <route edges="PVB_J0_J3 PVB_J3_J5"/>
    </vehicle>
    <vehicle id="flow2_bin6.0" type="motorbike" depart="433.67">
        <route edges="HQC_J4_J3 PVB_J3_J5"/>
    </vehicle>
    <vehicle id="flow10_bin6.0" type="motorbike" depart="433.83">
        <route edges="PVB_J6_J3 PVB_J3_J1"/>
    </vehicle>
    <vehicle id="flow14_bin6.1" type="motorbike" depart="436.12">
        <route edges="PVB_J0_J3 PVB_J3_J5"/>
    </vehicle>
    <vehicle id="flow14_bin6.2" type="motorbike" depart="437.22">
        <route edges="PVB_J0_J3 PVB_J3_J5"/>
    </vehicle>
    <vehicle id="flow10_bin6.1" type="motorbike" depart="437.48">
        <route edges="PVB_J6_J3 PVB_J3_J1"/>
    </vehicle>
    <vehicle id="flow9_bin6.0" type="car" depart="437.73">
        <route edges="PVB_J6_J3 PVB_J3_J1"/>
    </vehicle>
    <vehicle id="flow10_bin6.2" type="motorbike" depart="437.88">
        <route edges="PVB_J6_J3 PVB_J3_J1"/>
    </vehicle>
    <vehicle id="flow13_bin6.0" type="car" depart="440.26">
        <route edges="PVB_J0_J3 PVB_J3_J5"/>
    </vehicle>
    <vehicle id="flow14_bin6.3" type="motorbike" depart="440.84">
        <route edges="PVB_J0_J3 HQC_J3_J2"/>
    </vehicle>
    <vehicle id="flow10_bin6.3" type="motorbike" depart="444.90">
        <route edges="PVB_J6_J3 PVB_J3_J1"/>
    </vehicle>
    <vehicle id="flow14_bin6.4" type="motorbike" depart="445.17">
        <route edges="PVB_J0_J3 HQC_J3_J4"/>
    </vehicle>
    <vehicle id="flow14_bin6.5" type="motorbike" depart="446.02">
        <route edges="PVB_J0_J3 PVB_J3_J5"/>
    </vehicle>
    <vehicle id="flow6_bin6.0" type="motorbike" depart="447.72">
        <route edges="HQC_J2_J3 PVB_J3_J5"/>
    </vehicle>
    <vehicle id="flow10_bin6.4" type="motorbike" depart="448.14">
        <route edges="PVB_J6_J3 PVB_J3_J1"/>
    </vehicle>
    <vehicle id="flow6_bin6.1" type="motorbike" depart="448.34">
        <route edges="HQC_J2_J3 PVB_J3_J5"/>
    </vehicle>
    <vehicle id="flow5_bin6.0" type="car" depart="452.38">
        <route edges="HQC_J2_J3 HQC_J3_J4"/>
    </vehicle>
    <vehicle id="flow14_bin6.6" type="motorbike" depart="453.75">
        <route edges="PVB_J0_J3 PVB_J3_J5"/>
    </vehicle>
    <vehicle id="flow14_bin6.7" type="motorbike" depart="454.63">
        <route edges="PVB_J0_J3 PVB_J3_J5"/>
    </vehicle>
    <vehicle id="flow14_bin6.8" type="motorbike" depart="454.95">
        <route edges="PVB_J0_J3 PVB_J3_J5"/>
    </vehicle>
    <vehicle id="flow13_bin6.1" type="car" depart="454.95">
        <route edges="PVB_J0_J3 PVB_J3_J5"/>
    </vehicle>
    <vehicle id="flow14_bin6.9" type="motorbike" depart="457.24">
        <route edges="PVB_J0_J3 PVB_J3_J5"/>
    </vehicle>
    <vehicle id="flow14_bin6.10" type="motorbike" depart="458.21">
        <route edges="PVB_J0_J3 PVB_J3_J5"/>
    </vehicle>
    <vehicle id="flow10_bin6.5" type="motorbike" depart="460.02">
        <route edges="PVB_J6_J3 PVB_J3_J1"/>
    </vehicle>
    <vehicle id="flow2_bin6.1" type="motorbike" depart="460.69">
        <route edges="HQC_J4_J3 PVB_J3_J5"/>
    </vehicle>
    <vehicle id="flow2_bin6.2" type="motorbike" depart="460.93">
        <route edges="HQC_J4_J3 PVB_J3_J5"/>
    </vehicle>
    <vehicle id="flow6_bin6.2" type="motorbike" depart="463.62">
        <route edges="HQC_J2_J3 PVB_J3_J1"/>
    </vehicle>
    <vehicle id="flow14_bin6.11" type="motorbike" depart="463.80">
        <route edges="PVB_J0_J3 PVB_J3_J5"/>
    </vehicle>
    <vehicle id="flow14_bin6.12" type="motorbike" depart="464.78">
        <route edges="PVB_J0_J3 HQC_J3_J4"/>
    </vehicle>
    <vehicle id="flow10_bin6.6" type="motorbike" depart="465.22">
        <route edges="PVB_J6_J3 HQC_J3_J4"/>
    </vehicle>
    <vehicle id="flow14_bin6.13" type="motorbike" depart="470.68">
        <route edges="PVB_J0_J3 HQC_J3_J4"/>
    </vehicle>
    <vehicle id="flow10_bin6.7" type="motorbike" depart="471.03">
        <route edges="PVB_J6_J3 PVB_J3_J1"/>
    </vehicle>
    <vehicle id="flow14_bin6.14" type="motorbike" depart="471.75">
        <route edges="PVB_J0_J3 PVB_J3_J5"/>
    </vehicle>
    <vehicle id="flow10_bin6.8" type="motorbike" depart="474.71">
        <route edges="PVB_J6_J3 PVB_J3_J1"/>
    </vehicle>
    <vehicle id="flow14_bin6.15" type="motorbike" depart="476.03">
        <route edges="PVB_J0_J3 PVB_J3_J5"/>
    </vehicle>
    <vehicle id="flow10_bin6.9" type="motorbike" depart="477.98">
        <route edges="PVB_J6_J3 HQC_J3_J2"/>
    </vehicle>
    <vehicle id="flow1_bin6.0" type="car" depart="479.01">
        <route edges="HQC_J4_J3 PVB_J3_J1"/>
    </vehicle>
    <vehicle id="flow13_bin6.2" type="car" depart="479.80">
        <route edges="PVB_J0_J3 HQC_J3_J4"/>
    </vehicle>
    <vehicle id="flow10_bin6.10" type="motorbike" depart="480.45">
        <route edges="PVB_J6_J3 HQC_J3_J4"/>
    </vehicle>
    <vehicle id="flow14_bin6.16" type="motorbike" depart="480.76">
        <route edges="PVB_J0_J3 PVB_J3_J5"/>
    </vehicle>
    <vehicle id="flow14_bin6.17" type="motorbike" depart="481.13">
        <route edges="PVB_J0_J3 PVB_J3_J5"/>
    </vehicle>
    <vehicle id="flow10_bin6.11" type="motorbike" depart="481.19">
        <route edges="PVB_J6_J3 PVB_J3_J1"/>
    </vehicle>
    <vehicle id="flow10_bin6.12" type="motorbike" depart="481.56">
        <route edges="PVB_J6_J3 PVB_J3_J1"/>
    </vehicle>
    <vehicle id="flow10_bin6.13" type="motorbike" depart="482.22">
        <route edges="PVB_J6_J3 PVB_J3_J1"/>
    </vehicle>
    <vehicle id="flow14_bin6.18" type="motorbike" depart="482.62">
        <route edges="PVB_J0_J3 PVB_J3_J5"/>
    </vehicle>
    <vehicle id="flow2_bin6.3" type="motorbike" depart="485.38">
        <route edges="HQC_J4_J3 HQC_J3_J2"/>
    </vehicle>
    <vehicle id="flow13_bin6.3" type="car" depart="486.70">
        <route edges="PVB_J0_J3 PVB_J3_J5"/>
    </vehicle>
    <vehicle id="flow14_bin6.19" type="motorbike" depart="490.93">
        <route edges="PVB_J0_J3 PVB_J3_J5"/>
    </vehicle>
    <vehicle id="flow14_bin6.20" type="motorbike" depart="494.10">
        <route edges="PVB_J0_J3 PVB_J3_J5"/>
    </vehicle>
    <vehicle id="flow14_bin6.21" type="motorbike" depart="495.64">
        <route edges="PVB_J0_J3 HQC_J3_J2"/>
    </vehicle>
    <vehicle id="flow10_bin6.14" type="motorbike" depart="495.98">
        <route edges="PVB_J6_J3 PVB_J3_J1"/>
    </vehicle>
    <vehicle id="flow13_bin6.4" type="car" depart="499.42">
        <route edges="PVB_J0_J3 PVB_J3_J5"/>
    </vehicle>
    <vehicle id="flow10_bin6.15" type="motorbike" depart="499.81">
        <route edges="PVB_J6_J3 PVB_J3_J1"/>
    </vehicle>
    <vehicle id="flow9_bin6.1" type="car" depart="502.38">
        <route edges="PVB_J6_J3 PVB_J3_J1"/>
    </vehicle>
    <vehicle id="flow14_bin7.0" type="motorbike" depart="504.81">
        <route edges="PVB_J0_J3 HQC_J3_J4"/>
    </vehicle>
    <vehicle id="flow14_bin7.1" type="motorbike" depart="505.27">
        <route edges="PVB_J0_J3 PVB_J3_J5"/>
    </vehicle>
    <vehicle id="flow2_bin7.0" type="motorbike" depart="506.36">
        <route edges="HQC_J4_J3 PVB_J3_J5"/>
    </vehicle>
    <vehicle id="flow9_bin7.0" type="car" depart="506.93">
        <route edges="PVB_J6_J3 PVB_J3_J1"/>
    </vehicle>
    <vehicle id="flow10_bin7.0" type="motorbike" depart="508.57">
        <route edges="PVB_J6_J3 PVB_J3_J1"/>
    </vehicle>
    <vehicle id="flow14_bin7.2" type="motorbike" depart="509.49">
        <route edges="PVB_J0_J3 HQC_J3_J4"/>
    </vehicle>
    <vehicle id="flow14_bin7.3" type="motorbike" depart="509.59">
        <route edges="PVB_J0_J3 PVB_J3_J5"/>
    </vehicle>
    <vehicle id="flow14_bin7.4" type="motorbike" depart="512.11">
        <route edges="PVB_J0_J3 PVB_J3_J5"/>
    </vehicle>
    <vehicle id="flow14_bin7.5" type="motorbike" depart="513.22">
        <route edges="PVB_J0_J3 HQC_J3_J4"/>
    </vehicle>
    <vehicle id="flow10_bin7.1" type="motorbike" depart="517.05">
        <route edges="PVB_J6_J3 PVB_J3_J1"/>
    </vehicle>
    <vehicle id="flow13_bin7.0" type="car" depart="518.32">
        <route edges="PVB_J0_J3 PVB_J3_J5"/>
    </vehicle>
    <vehicle id="flow6_bin7.0" type="motorbike" depart="519.15">
        <route edges="HQC_J2_J3 PVB_J3_J1"/>
    </vehicle>
    <vehicle id="flow14_bin7.6" type="motorbike" depart="519.45">
        <route edges="PVB_J0_J3 PVB_J3_J5"/>
    </vehicle>
    <vehicle id="flow1_bin7.0" type="car" depart="520.66">