<?xml version="1.0" encoding="UTF-8"?>

<!-- generated on 2025-06-09 04:13:50 by Eclipse SUMO jtrrouter Version 1.23.1
<jtrrouterConfiguration xmlns:xsi="http://www.w3.org/2001/XMLSchema-instance" xsi:noNamespaceSchemaLocation="http://sumo.dlr.de/xsd/jtrrouterConfiguration.xsd">

    <input>
        <net-file value="./DATN/datn.net.xml"/>
        <additional-files value="DATN/jtrrouter/vehicles.vtype.xml"/>
        <route-files value="./DATN/jtrrouter/datn.flows.xml"/>
        <turn-ratio-files value="DATN/jtrrouter/datn.turns.xml"/>
    </input>

    <output>
        <output-file value="routers2.rou.xml"/>
    </output>

</jtrrouterConfiguration>
-->

<routes xmlns:xsi="http://www.w3.org/2001/XMLSchema-instance" xsi:noNamespaceSchemaLocation="http://sumo.dlr.de/xsd/routes_file.xsd">
    <vType id="car" length="4.50" minGap="2.00" maxSpeed="120.00" speedFactor="normc(1.00,0.10,0.20,2.00)" vClass="passenger" lcStrategic="1.0" lcCooperative="0.7" lcSpeedGain="1.0" lcKeepRight="1.0" lcSublane="0.5" lcPushy="0.5" lcAssertive="1.2" lcAccelLat="1.0" jmCrossingGap="3.0" jmIgnoreKeepClearTime="10" jmIgnoreFoeProb="0.1" accel="2.8" decel="4.5" emergencyDecel="9.0" sigma="0.3" tau="1.4"/>
    <vehicle id="flow1.0" type="car" depart="0.00">
        <route edges="HQC_J4_J3 PVB_J3_J5"/>
    </vehicle>
    <vType id="motorbike" length="2.00" minGap="1.50" maxSpeed="60.00" speedFactor="normc(1.00,0.15,0.20,2.00)" vClass="motorcycle" lcStrategic="1.0" lcCooperative="0.5" lcSpeedGain="1.2" lcKeepRight="0.5" lcSublane="1.0" lcPushy="0.8" lcAssertive="1.5" lcAccelLat="2.0" jmCrossingGap="2.0" jmIgnoreKeepClearTime="5" jmIgnoreFoeProb="0.2" accel="7.0" decel="12.0" emergencyDecel="15.0" sigma="0.5" tau="1.0"/>
    <vehicle id="flow10.0" type="motorbike" depart="0.00">
        <route edges="PVB_J6_J3 PVB_J3_J1"/>
    </vehicle>
    <vType id="bus" length="12.00" minGap="3.00" maxSpeed="80.00" speedFactor="normc(1.00,0.05,0.20,2.00)" vClass="bus" lcStrategic="1.0" lcCooperative="0.8" lcSpeedGain="0.8" lcKeepRight="1.2" lcSublane="0.0" lcPushy="0.3" lcAssertive="1.0" lcAccelLat="0.8" jmCrossingGap="4.0" jmIgnoreKeepClearTime="15" jmIgnoreFoeProb="0.05" accel="1.5" decel="4.0" emergencyDecel="7.0" sigma="0.2" tau="1.6"/>
    <vehicle id="flow11.0" type="bus" depart="0.00">
        <route edges="PVB_J6_J3 HQC_J3_J2"/>
    </vehicle>
    <vType id="truck" length="7.50" minGap="3.00" maxSpeed="90.00" speedFactor="normc(1.00,0.05,0.20,2.00)" vClass="truck" lcStrategic="1.0" lcCooperative="0.8" lcSpeedGain="0.8" lcKeepRight="1.2" lcSublane="0.0" lcPushy="0.3" lcAssertive="1.0" lcAccelLat="0.8" jmCrossingGap="4.0" jmIgnoreKeepClearTime="15" jmIgnoreFoeProb="0.05" accel="1.3" decel="4.0" emergencyDecel="7.0" sigma="0.2" tau="1.6"/>
    <vehicle id="flow12.0" type="truck" depart="0.00">
        <route edges="PVB_J6_J3 PVB_J3_J1"/>
    </vehicle>
    <vehicle id="flow13.0" type="car" depart="0.00">
        <route edges="PVB_J0_J3 PVB_J3_J5"/>
    </vehicle>
    <vehicle id="flow14.0" type="motorbike" depart="0.00">
        <route edges="PVB_J0_J3 HQC_J3_J2"/>
    </vehicle>
    <vehicle id="flow15.0" type="bus" depart="0.00">
        <route edges="PVB_J0_J3 PVB_J3_J5"/>
    </vehicle>
    <vehicle id="flow16.0" type="truck" depart="0.00">
        <route edges="PVB_J0_J3 HQC_J3_J4"/>
    </vehicle>
    <vehicle id="flow2.0" type="motorbike" depart="0.00">
        <route edges="HQC_J4_J3 HQC_J3_J2"/>
    </vehicle>
    <vehicle id="flow3.0" type="bus" depart="0.00">
        <route edges="HQC_J4_J3 PVB_J3_J1"/>
    </vehicle>
    <vehicle id="flow4.0" type="truck" depart="0.00">
        <route edges="HQC_J4_J3 HQC_J3_J2"/>
    </vehicle>
    <vehicle id="flow5.0" type="car" depart="0.00">
        <route edges="HQC_J2_J3 HQC_J3_J4"/>
    </vehicle>
    <vehicle id="flow6.0" type="motorbike" depart="0.00">
        <route edges="HQC_J2_J3 HQC_J3_J4"/>
    </vehicle>
    <vehicle id="flow7.0" type="bus" depart="0.00">
        <route edges="HQC_J2_J3 HQC_J3_J4"/>
    </vehicle>
    <vehicle id="flow8.0" type="truck" depart="0.00">
        <route edges="HQC_J2_J3 HQC_J3_J4"/>
    </vehicle>
    <vehicle id="flow9.0" type="car" depart="0.00">
        <route edges="PVB_J6_J3 HQC_J3_J4"/>
    </vehicle>
    <vehicle id="flow10.1" type="motorbike" depart="1.44">
        <route edges="PVB_J6_J3 HQC_J3_J2"/>
    </vehicle>
    <vehicle id="flow14.1" type="motorbike" depart="1.61">
        <route edges="PVB_J0_J3 PVB_J3_J5"/>
    </vehicle>
    <vehicle id="flow10.2" type="motorbike" depart="2.88">
        <route edges="PVB_J6_J3 PVB_J3_J1"/>
    </vehicle>
    <vehicle id="flow14.2" type="motorbike" depart="3.22">
        <route edges="PVB_J0_J3 PVB_J3_J5"/>
    </vehicle>
    <vehicle id="flow10.3" type="motorbike" depart="4.32">
        <route edges="PVB_J6_J3 HQC_J3_J2"/>
    </vehicle>
    <vehicle id="flow14.3" type="motorbike" depart="4.83">
        <route edges="PVB_J0_J3 PVB_J3_J5"/>
    </vehicle>
    <vehicle id="flow10.4" type="motorbike" depart="5.76">
        <route edges="PVB_J6_J3 PVB_J3_J1"/>
    </vehicle>
    <vehicle id="flow6.1" type="motorbike" depart="5.88">
        <route edges="HQC_J2_J3 HQC_J3_J4"/>
    </vehicle>
    <vehicle id="flow14.4" type="motorbike" depart="6.44">
        <route edges="PVB_J0_J3 PVB_J3_J5"/>
    </vehicle>
    <vehicle id="flow2.1" type="motorbike" depart="6.86">
        <route edges="HQC_J4_J3 PVB_J3_J1"/>
    </vehicle>
    <vehicle id="flow10.5" type="motorbike" depart="7.20">
        <route edges="PVB_J6_J3 PVB_J3_J1"/>
    </vehicle>
    <vehicle id="flow9.1" type="car" depart="7.20">
        <route edges="PVB_J6_J3 PVB_J3_J1"/>
    </vehicle>
    <vehicle id="flow13.1" type="car" depart="7.91">
        <route edges="PVB_J0_J3 PVB_J3_J5"/>
    </vehicle>
    <vehicle id="flow14.5" type="motorbike" depart="8.06">
        <route edges="PVB_J0_J3 HQC_J3_J4"/>
    </vehicle>
    <vehicle id="flow10.6" type="motorbike" depart="8.64">
        <route edges="PVB_J6_J3 HQC_J3_J2"/>
    </vehicle>
    <vehicle id="flow14.6" type="motorbike" depart="9.67">
        <route edges="PVB_J0_J3 PVB_J3_J5"/>
    </vehicle>
    <vehicle id="flow10.7" type="motorbike" depart="10.08">
        <route edges="PVB_J6_J3 PVB_J3_J1"/>
    </vehicle>
    <vehicle id="flow14.7" type="motorbike" depart="11.28">
        <route edges="PVB_J0_J3 HQC_J3_J4"/>
    </vehicle>
    <vehicle id="flow10.8" type="motorbike" depart="11.52">
        <route edges="PVB_J6_J3 PVB_J3_J1"/>
    </vehicle>
    <vehicle id="flow6.2" type="motorbike" depart="11.76">
        <route edges="HQC_J2_J3 HQC_J3_J4"/>
    </vehicle>
    <vehicle id="flow5.1" type="car" depart="12.86">
        <route edges="HQC_J2_J3 HQC_J3_J4"/>
    </vehicle>
    <vehicle id="flow14.8" type="motorbike" depart="12.89">
        <route edges="PVB_J0_J3 PVB_J3_J5"/>
    </vehicle>
    <vehicle id="flow10.9" type="motorbike" depart="12.96">
        <route edges="PVB_J6_J3 HQC_J3_J2"/>
    </vehicle>
    <vehicle id="flow2.2" type="motorbike" depart="13.71">
        <route edges="HQC_J4_J3 HQC_J3_J2"/>
    </vehicle>
    <vehicle id="flow1.1" type="car" depart="14.17">
        <route edges="HQC_J4_J3 HQC_J3_J2"/>
    </vehicle>
    <vehicle id="flow10.10" type="motorbike" depart="14.40">
        <route edges="PVB_J6_J3 PVB_J3_J1"/>
    </vehicle>
    <vehicle id="flow9.2" type="car" depart="14.40">
        <route edges="PVB_J6_J3 HQC_J3_J4"/>
    </vehicle>
    <vehicle id="flow14.9" type="motorbike" depart="14.50">
        <route edges="PVB_J0_J3 HQC_J3_J4"/>
    </vehicle>
    <vehicle id="flow13.2" type="car" depart="15.82">
        <route edges="PVB_J0_J3 HQC_J3_J4"/>
    </vehicle>
    <vehicle id="flow10.11" type="motorbike" depart="15.84">
        <route edges="PVB_J6_J3 PVB_J3_J1"/>
    </vehicle>
    <vehicle id="flow14.10" type="motorbike" depart="16.11">
        <route edges="PVB_J0_J3 HQC_J3_J4"/>
    </vehicle>
    <vehicle id="flow10.12" type="motorbike" depart="17.28">
        <route edges="PVB_J6_J3 PVB_J3_J1"/>
    </vehicle>
    <vehicle id="flow6.3" type="motorbike" depart="17.65">
        <route edges="HQC_J2_J3 HQC_J3_J4"/>
    </vehicle>
    <vehicle id="flow14.11" type="motorbike" depart="17.72">
        <route edges="PVB_J0_J3 PVB_J3_J5"/>
    </vehicle>
    <vehicle id="flow10.13" type="motorbike" depart="18.72">
        <route edges="PVB_J6_J3 PVB_J3_J1"/>
    </vehicle>
    <vehicle id="flow14.12" type="motorbike" depart="19.33">
        <route edges="PVB_J0_J3 PVB_J3_J5"/>
    </vehicle>
    <vehicle id="flow10.14" type="motorbike" depart="20.16">
        <route edges="PVB_J6_J3 PVB_J3_J1"/>
    </vehicle>
    <vehicle id="flow2.3" type="motorbike" depart="20.57">
        <route edges="HQC_J4_J3 PVB_J3_J5"/>
    </vehicle>
    <vehicle id="flow14.13" type="motorbike" depart="20.94">
        <route edges="PVB_J0_J3 PVB_J3_J5"/>
    </vehicle>
    <vehicle id="flow10.15" type="motorbike" depart="21.60">
        <route edges="PVB_J6_J3 PVB_J3_J1"/>
    </vehicle>
    <vehicle id="flow9.3" type="car" depart="21.60">
        <route edges="PVB_J6_J3 PVB_J3_J1"/>
    </vehicle>
    <vehicle id="flow14.14" type="motorbike" depart="22.55">
        <route edges="PVB_J0_J3 PVB_J3_J5"/>
    </vehicle>
    <vehicle id="flow10.16" type="motorbike" depart="23.04">
        <route edges="PVB_J6_J3 HQC_J3_J4"/>
    </vehicle>
    <vehicle id="flow6.4" type="motorbike" depart="23.53">
        <route edges="HQC_J2_J3 PVB_J3_J5"/>
    </vehicle>
    <vehicle id="flow13.3" type="car" depart="23.74">
        <route edges="PVB_J0_J3 HQC_J3_J4"/>
    </vehicle>
    <vehicle id="flow14.15" type="motorbike" depart="24.17">
        <route edges="PVB_J0_J3 PVB_J3_J5"/>
    </vehicle>
    <vehicle id="flow10.17" type="motorbike" depart="24.48">
        <route edges="PVB_J6_J3 HQC_J3_J4"/>
    </vehicle>
    <vehicle id="flow5.2" type="car" depart="25.71">
        <route edges="HQC_J2_J3 HQC_J3_J4"/>
    </vehicle>
    <vehicle id="flow14.16" type="motorbike" depart="25.78">
        <route edges="PVB_J0_J3 HQC_J3_J4"/>
    </vehicle>
    <vehicle id="flow10.18" type="motorbike" depart="25.92">
        <route edges="PVB_J6_J3 PVB_J3_J1"/>
    </vehicle>
    <vehicle id="flow10.19" type="motorbike" depart="27.36">
        <route edges="PVB_J6_J3 PVB_J3_J1"/>
    </vehicle>
    <vehicle id="flow14.17" type="motorbike" depart="27.39">
        <route edges="PVB_J0_J3 HQC_J3_J2"/>
    </vehicle>
    <vehicle id="flow2.4" type="motorbike" depart="27.43">
        <route edges="HQC_J4_J3 HQC_J3_J2"/>
    </vehicle>
    <vehicle id="flow1.2" type="car" depart="28.35">
        <route edges="HQC_J4_J3 PVB_J3_J5"/>
    </vehicle>
    <vehicle id="flow10.20" type="motorbike" depart="28.80">
        <route edges="PVB_J6_J3 PVB_J3_J1"/>
    </vehicle>
    <vehicle id="flow9.4" type="car" depart="28.80">
        <route edges="PVB_J6_J3 PVB_J3_J1"/>
    </vehicle>
    <vehicle id="flow14.18" type="motorbike" depart="29.00">
        <route edges="PVB_J0_J3 HQC_J3_J2"/>
    </vehicle>
    <vehicle id="flow6.5" type="motorbike" depart="29.41">
        <route edges="HQC_J2_J3 HQC_J3_J4"/>
    </vehicle>
    <vehicle id="flow10.21" type="motorbike" depart="30.24">
        <route edges="PVB_J6_J3 HQC_J3_J4"/>
    </vehicle>
    <vehicle id="flow14.19" type="motorbike" depart="30.61">
        <route edges="PVB_J0_J3 HQC_J3_J4"/>
    </vehicle>
    <vehicle id="flow13.4" type="car" depart="31.65">
        <route edges="PVB_J0_J3 HQC_J3_J2"/>
    </vehicle>
    <vehicle id="flow10.22" type="motorbike" depart="31.68">
        <route edges="PVB_J6_J3 HQC_J3_J2"/>
    </vehicle>
    <vehicle id="flow14.20" type="motorbike" depart="32.22">
        <route edges="PVB_J0_J3 PVB_J3_J5"/>
    </vehicle>
    <vehicle id="flow10.23" type="motorbike" depart="33.12">
        <route edges="PVB_J6_J3 PVB_J3_J1"/>
    </vehicle>
    <vehicle id="flow14.21" type="motorbike" depart="33.83">
        <route edges="PVB_J0_J3 HQC_J3_J4"/>
    </vehicle>
    <vehicle id="flow2.5" type="motorbike" depart="34.29">
        <route edges="HQC_J4_J3 HQC_J3_J2"/>
    </vehicle>
    <vehicle id="flow10.24" type="motorbike" depart="34.56">
        <route edges="PVB_J6_J3 PVB_J3_J1"/>
    </vehicle>
    <vehicle id="flow6.6" type="motorbike" depart="35.29">
        <route edges="HQC_J2_J3 HQC_J3_J4"/>
    </vehicle>
    <vehicle id="flow14.22" type="motorbike" depart="35.44">
        <route edges="PVB_J0_J3 PVB_J3_J5"/>
    </vehicle>
    <vehicle id="flow10.25" type="motorbike" depart="36.00">
        <route edges="PVB_J6_J3 PVB_J3_J1"/>
    </vehicle>
    <vehicle id="flow9.5" type="car" depart="36.00">
        <route edges="PVB_J6_J3 PVB_J3_J1"/>
    </vehicle>
    <vehicle id="flow14.23" type="motorbike" depart="37.05">
        <route edges="PVB_J0_J3 PVB_J3_J5"/>
    </vehicle>
    <vehicle id="flow10.26" type="motorbike" depart="37.44">
        <route edges="PVB_J6_J3 PVB_J3_J1"/>
    </vehicle>
    <vehicle id="flow5.3" type="car" depart="38.57">
        <route edges="HQC_J2_J3 HQC_J3_J4"/>
    </vehicle>
    <vehicle id="flow14.24" type="motorbike" depart="38.66">
        <route edges="PVB_J0_J3 PVB_J3_J5"/>
    </vehicle>
    <vehicle id="flow10.27" type="motorbike" depart="38.88">
        <route edges="PVB_J6_J3 PVB_J3_J1"/>
    </vehicle>
    <vehicle id="flow13.5" type="car" depart="39.56">
        <route edges="PVB_J0_J3 HQC_J3_J2"/>
    </vehicle>
    <vehicle id="flow14.25" type="motorbike" depart="40.28">
        <route edges="PVB_J0_J3 PVB_J3_J5"/>
    </vehicle>
    <vehicle id="flow10.28" type="motorbike" depart="40.32">
        <route edges="PVB_J6_J3 HQC_J3_J2"/>
    </vehicle>
    <vehicle id="flow2.6" type="motorbike" depart="41.14">
        <route edges="HQC_J4_J3 PVB_J3_J5"/>
    </vehicle>
    <vehicle id="flow6.7" type="motorbike" depart="41.17">
        <route edges="HQC_J2_J3 HQC_J3_J4"/>
    </vehicle>
    <vehicle id="flow10.29" type="motorbike" depart="41.76">
        <route edges="PVB_J6_J3 PVB_J3_J1"/>
    </vehicle>
    <vehicle id="flow14.26" type="motorbike" depart="41.89">
        <route edges="PVB_J0_J3 PVB_J3_J5"/>
    </vehicle>
    <vehicle id="flow1.3" type="car" depart="42.52">
        <route edges="HQC_J4_J3 HQC_J3_J2"/>
    </vehicle>
    <vehicle id="flow10.30" type="motorbike" depart="43.20">
        <route edges="PVB_J6_J3 PVB_J3_J1"/>
    </vehicle>
    <vehicle id="flow9.6" type="car" depart="43.20">
        <route edges="PVB_J6_J3 PVB_J3_J1"/>
    </vehicle>
    <vehicle id="flow14.27" type="motorbike" depart="43.50">
        <route edges="PVB_J0_J3 PVB_J3_J5"/>
    </vehicle>
    <vehicle id="flow10.31" type="motorbike" depart="44.64">
        <route edges="PVB_J6_J3 PVB_J3_J1"/>
    </vehicle>
    <vehicle id="flow14.28" type="motorbike" depart="45.11">
        <route edges="PVB_J0_J3 PVB_J3_J5"/>
    </vehicle>
    <vehicle id="flow10.32" type="motorbike" depart="46.08">
        <route edges="PVB_J6_J3 HQC_J3_J4"/>
    </vehicle>
    <vehicle id="flow14.29" type="motorbike" depart="46.72">
        <route edges="PVB_J0_J3 PVB_J3_J5"/>
    </vehicle>
    <vehicle id="flow6.8" type="motorbike" depart="47.06">
        <route edges="HQC_J2_J3 HQC_J3_J4"/>
    </vehicle>
    <vehicle id="flow13.6" type="car" depart="47.47">
        <route edges="PVB_J0_J3 PVB_J3_J5"/>
    </vehicle>
    <vehicle id="flow10.33" type="motorbike" depart="47.52">
        <route edges="PVB_J6_J3 HQC_J3_J2"/>
    </vehicle>
    <vehicle id="flow2.7" type="motorbike" depart="48.00">
        <route edges="HQC_J4_J3 HQC_J3_J2"/>
    </vehicle>
    <vehicle id="flow14.30" type="motorbike" depart="48.33">
        <route edges="PVB_J0_J3 PVB_J3_J5"/>
    </vehicle>
    <vehicle id="flow10.34" type="motorbike" depart="48.96">
        <route edges="PVB_J6_J3 PVB_J3_J1"/>
    </vehicle>
    <vehicle id="flow14.31" type="motorbike" depart="49.94">
        <route edges="PVB_J0_J3 HQC_J3_J4"/>
    </vehicle>
    <vehicle id="flow10.35" type="motorbike" depart="50.40">
        <route edges="PVB_J6_J3 PVB_J3_J1"/>
    </vehicle>
    <vehicle id="flow9.7" type="car" depart="50.40">
        <route edges="PVB_J6_J3 HQC_J3_J2"/>
    </vehicle>
    <vehicle id="flow5.4" type="car" depart="51.43">
        <route edges="HQC_J2_J3 PVB_J3_J1"/>
    </vehicle>
    <vehicle id="flow14.32" type="motorbike" depart="51.55">
        <route edges="PVB_J0_J3 HQC_J3_J2"/>
    </vehicle>
    <vehicle id="flow10.36" type="motorbike" depart="51.84">
        <route edges="PVB_J6_J3 PVB_J3_J1"/>
    </vehicle>
    <vehicle id="flow6.9" type="motorbike" depart="52.94">
        <route edges="HQC_J2_J3 HQC_J3_J4"/>
    </vehicle>
    <vehicle id="flow14.33" type="motorbike" depart="53.16">
        <route edges="PVB_J0_J3 PVB_J3_J5"/>
    </vehicle>
    <vehicle id="flow10.37" type="motorbike" depart="53.28">
        <route edges="PVB_J6_J3 HQC_J3_J2"/>
    </vehicle>
    <vehicle id="flow10.38" type="motorbike" depart="54.72">
        <route edges="PVB_J6_J3 PVB_J3_J1"/>
    </vehicle>
    <vehicle id="flow14.34" type="motorbike" depart="54.77">
        <route edges="PVB_J0_J3 PVB_J3_J5"/>
    </vehicle>
    <vehicle id="flow2.8" type="motorbike" depart="54.86">
        <route edges="HQC_J4_J3 PVB_J3_J5"/>
    </vehicle>
    <vehicle id="flow13.7" type="car" depart="55.38">
        <route edges="PVB_J0_J3 PVB_J3_J5"/>
    </vehicle>
    <vehicle id="flow10.39" type="motorbike" depart="56.16">
        <route edges="PVB_J6_J3 HQC_J3_J4"/>
    </vehicle>
    <vehicle id="flow14.35" type="motorbike" depart="56.39">
        <route edges="PVB_J0_J3 PVB_J3_J5"/>
    </vehicle>
    <vehicle id="flow1.4" type="car" depart="56.69">
        <route edges="HQC_J4_J3 HQC_J3_J2"/>
    </vehicle>
    <vehicle id="flow10.40" type="motorbike" depart="57.60">
        <route edges="PVB_J6_J3 PVB_J3_J1"/>
    </vehicle>
    <vehicle id="flow9.8" type="car" depart="57.60">
        <route edges="PVB_J6_J3 PVB_J3_J1"/>
    </vehicle>
    <vehicle id="flow14.36" type="motorbike" depart="58.00">
        <route edges="PVB_J0_J3 PVB_J3_J5"/>
    </vehicle>
    <vehicle id="flow6.10" type="motorbike" depart="58.82">
        <route edges="HQC_J2_J3 HQC_J3_J4"/>
    </vehicle>
    <vehicle id="flow10.41" type="motorbike" depart="59.04">
        <route edges="PVB_J6_J3 PVB_J3_J1"/>
    </vehicle>
    <vehicle id="flow14.37" type="motorbike" depart="59.61">
        <route edges="PVB_J0_J3 PVB_J3_J5"/>
    </vehicle>
    <vehicle id="flow10.42" type="motorbike" depart="60.48">
        <route edges="PVB_J6_J3 PVB_J3_J1"/>
    </vehicle>
    <vehicle id="flow14.38" type="motorbike" depart="61.22">
        <route edges="PVB_J0_J3 PVB_J3_J5"/>
    </vehicle>
    <vehicle id="flow2.9" type="motorbike" depart="61.71">
        <route edges="HQC_J4_J3 HQC_J3_J2"/>
    </vehicle>
    <vehicle id="flow10.43" type="motorbike" depart="61.92">
        <route edges="PVB_J6_J3 PVB_J3_J1"/>
    </vehicle>
    <vehicle id="flow14.39" type="motorbike" depart="62.83">
        <route edges="PVB_J0_J3 PVB_J3_J5"/>
    </vehicle>
    <vehicle id="flow13.8" type="car" depart="63.30">
        <route edges="PVB_J0_J3 PVB_J3_J5"/>
    </vehicle>
    <vehicle id="flow10.44" type="motorbike" depart="63.36">
        <route edges="PVB_J6_J3 PVB_J3_J1"/>
    </vehicle>
    <vehicle id="flow5.5" type="car" depart="64.29">
        <route edges="HQC_J2_J3 HQC_J3_J4"/>
    </vehicle>
    <vehicle id="flow14.40" type="motorbike" depart="64.44">
        <route edges="PVB_J0_J3 HQC_J3_J2"/>
    </vehicle>
    <vehicle id="flow6.11" type="motorbike" depart="64.70">
        <route edges="HQC_J2_J3 PVB_J3_J5"/>
    </vehicle>
    <vehicle id="flow10.45" type="motorbike" depart="64.80">
        <route edges="PVB_J6_J3 PVB_J3_J1"/>
    </vehicle>
    <vehicle id="flow9.9" type="car" depart="64.80">
        <route edges="PVB_J6_J3 PVB_J3_J1"/>
    </vehicle>
    <vehicle id="flow14.41" type="motorbike" depart="66.05">
        <route edges="PVB_J0_J3 PVB_J3_J5"/>
    </vehicle>
    <vehicle id="flow10.46" type="motorbike" depart="66.24">
        <route edges="PVB_J6_J3 HQC_J3_J4"/>
    </vehicle>
    <vehicle id="flow14.42" type="motorbike" depart="67.66">
        <route edges="PVB_J0_J3 PVB_J3_J5"/>
    </vehicle>
    <vehicle id="flow10.47" type="motorbike" depart="67.68">
        <route edges="PVB_J6_J3 PVB_J3_J1"/>
    </vehicle>
    <vehicle id="flow2.10" type="motorbike" depart="68.57">
        <route edges="HQC_J4_J3 HQC_J3_J2"/>
    </vehicle>
    <vehicle id="flow10.48" type="motorbike" depart="69.12">
        <route edges="PVB_J6_J3 PVB_J3_J1"/>
    </vehicle>
    <vehicle id="flow14.43" type="motorbike" depart="69.27">
        <route edges="PVB_J0_J3 HQC_J3_J2"/>
    </vehicle>
    <vehicle id="flow10.49" type="motorbike" depart="70.56">
        <route edges="PVB_J6_J3 PVB_J3_J1"/>
    </vehicle>
    <vehicle id="flow6.12" type="motorbike" depart="70.58">
        <route edges="HQC_J2_J3 PVB_J3_J5"/>
    </vehicle>
    <vehicle id="flow1.5" type="car" depart="70.87">
        <route edges="HQC_J4_J3 HQC_J3_J2"/>
    </vehicle>
    <vehicle id="flow14.44" type="motorbike" depart="70.88">
        <route edges="PVB_J0_J3 PVB_J3_J5"/>
    </vehicle>
    <vehicle id="flow13.9" type="car" depart="71.21">
        <route edges="PVB_J0_J3 PVB_J3_J5"/>
    </vehicle>
    <vehicle id="flow10.50" type="motorbike" depart="72.00">
        <route edges="PVB_J6_J3 PVB_J3_J1"/>
    </vehicle>
    <vehicle id="flow9.10" type="car" depart="72.00">
        <route edges="PVB_J6_J3 HQC_J3_J2"/>
    </vehicle>
    <vehicle id="flow14.45" type="motorbike" depart="72.50">
        <route edges="PVB_J0_J3 PVB_J3_J5"/>
    </vehicle>
    <vehicle id="flow10.51" type="motorbike" depart="73.44">
        <route edges="PVB_J6_J3 PVB_J3_J1"/>
    </vehicle>
    <vehicle id="flow14.46" type="motorbike" depart="74.11">
        <route edges="PVB_J0_J3 PVB_J3_J5"/>
    </vehicle>
    <vehicle id="flow10.52" type="motorbike" depart="74.88">
        <route edges="PVB_J6_J3 PVB_J3_J1"/>
    </vehicle>
    <vehicle id="flow2.11" type="motorbike" depart="75.43">
        <route edges="HQC_J4_J3 HQC_J3_J2"/>
    </vehicle>
    <vehicle id="flow14.47" type="motorbike" depart="75.72">
        <route edges="PVB_J0_J3 PVB_J3_J5"/>
    </vehicle>
    <vehicle id="flow10.53" type="motorbike" depart="76.32">
        <route edges="PVB_J6_J3 PVB_J3_J1"/>
    </vehicle>
    <vehicle id="flow6.13" type="motorbike" depart="76.47">
        <route edges="HQC_J2_J3 HQC_J3_J4"/>
    </vehicle>
    <vehicle id="flow5.6" type="car" depart="77.14">
        <route edges="HQC_J2_J3 PVB_J3_J1"/>
    </vehicle>
    <vehicle id="flow14.48" type="motorbike" depart="77.33">
        <route edges="PVB_J0_J3 PVB_J3_J5"/>
    </vehicle>
    <vehicle id="flow10.54" type="motorbike" depart="77.76">
        <route edges="PVB_J6_J3 HQC_J3_J4"/>
    </vehicle>
    <vehicle id="flow14.49" type="motorbike" depart="78.94">
        <route edges="PVB_J0_J3 HQC_J3_J4"/>
    </vehicle>
    <vehicle id="flow13.10" type="car" depart="79.12">
        <route edges="PVB_J0_J3 PVB_J3_J5"/>
    </vehicle>
    <vehicle id="flow10.55" type="motorbike" depart="79.20">
        <route edges="PVB_J6_J3 PVB_J3_J1"/>
    </vehicle>
    <vehicle id="flow9.11" type="car" depart="79.20">
        <route edges="PVB_J6_J3 PVB_J3_J1"/>
    </vehicle>
    <vehicle id="flow14.50" type="motorbike" depart="80.55">
        <route edges="PVB_J0_J3 PVB_J3_J5"/>
    </vehicle>
    <vehicle id="flow10.56" type="motorbike" depart="80.64">
        <route edges="PVB_J6_J3 PVB_J3_J1"/>
    </vehicle>
    <vehicle id="flow10.57" type="motorbike" depart="82.08">
        <route edges="PVB_J6_J3 PVB_J3_J1"/>
    </vehicle>
    <vehicle id="flow14.51" type="motorbike" depart="82.16">
        <route edges="PVB_J0_J3 HQC_J3_J4"/>
    </vehicle>
    <vehicle id="flow2.12" type="motorbike" depart="82.28">
        <route edges="HQC_J4_J3 HQC_J3_J2"/>
    </vehicle>
    <vehicle id="flow6.14" type="motorbike" depart="82.35">
        <route edges="HQC_J2_J3 HQC_J3_J4"/>
    </vehicle>
    <vehicle id="flow10.58" type="motorbike" depart="83.52">
        <route edges="PVB_J6_J3 PVB_J3_J1"/>
    </vehicle>
    <vehicle id="flow14.52" type="motorbike" depart="83.77">
        <route edges="PVB_J0_J3 HQC_J3_J2"/>
    </vehicle>
    <vehicle id="flow10.59" type="motorbike" depart="84.96">
        <route edges="PVB_J6_J3 HQC_J3_J2"/>
    </vehicle>
    <vehicle id="flow1.6" type="car" depart="85.04">
        <route edges="HQC_J4_J3 HQC_J3_J2"/>
    </vehicle>
    <vehicle id="flow14.53" type="motorbike" depart="85.38">
        <route edges="PVB_J0_J3 HQC_J3_J4"/>
    </vehicle>
    <vehicle id="flow10.60" type="motorbike" depart="86.40">
        <route edges="PVB_J6_J3 HQC_J3_J4"/>
    </vehicle>
    <vehicle id="flow9.12" type="car" depart="86.40">
        <route edges="PVB_J6_J3 PVB_J3_J1"/>
    </vehicle>
    <vehicle id="flow14.54" type="motorbike" depart="86.99">
        <route edges="PVB_J0_J3 PVB_J3_J5"/>
    </vehicle>
    <vehicle id="flow13.11" type="car" depart="87.03">
        <route edges="PVB_J0_J3 HQC_J3_J4"/>
    </vehicle>
    <vehicle id="flow10.61" type="motorbike" depart="87.84">
        <route edges="PVB_J6_J3 PVB_J3_J1"/>
    </vehicle>
    <vehicle id="flow6.15" type="motorbike" depart="88.23">
        <route edges="HQC_J2_J3 HQC_J3_J4"/>
    </vehicle>
    <vehicle id="flow14.55" type="motorbike" depart="88.61">
        <route edges="PVB_J0_J3 HQC_J3_J4"/>
    </vehicle>
    <vehicle id="flow2.13" type="motorbike" depart="89.14">
        <route edges="HQC_J4_J3 HQC_J3_J2"/>
    </vehicle>
    <vehicle id="flow10.62" type="motorbike" depart="89.28">
        <route edges="PVB_J6_J3 PVB_J3_J1"/>
    </vehicle>
    <vehicle id="flow5.7" type="car" depart="90.00">
        <route edges="HQC_J2_J3 HQC_J3_J4"/>
    </vehicle>
    <vehicle id="flow14.56" type="motorbike" depart="90.22">
        <route edges="PVB_J0_J3 PVB_J3_J5"/>
    </vehicle>
    <vehicle id="flow10.63" type="motorbike" depart="90.72">
        <route edges="PVB_J6_J3 PVB_J3_J1"/>
    </vehicle>
    <vehicle id="flow14.57" type="motorbike" depart="91.83">
        <route edges="PVB_J0_J3 PVB_J3_J5"/>
    </vehicle>
    <vehicle id="flow10.64" type="motorbike" depart="92.16">
        <route edges="PVB_J6_J3 PVB_J3_J1"/>
    </vehicle>
    <vehicle id="flow14.58" type="motorbike" depart="93.44">
        <route edges="PVB_J0_J3 HQC_J3_J2"/>
    </vehicle>
    <vehicle id="flow10.65" type="motorbike" depart="93.60">
        <route edges="PVB_J6_J3 PVB_J3_J1"/>
    </vehicle>
    <vehicle id="flow9.13" type="car" depart="93.60">
        <route edges="PVB_J6_J3 HQC_J3_J2"/>
    </vehicle>
    <vehicle id="flow6.16" type="motorbike" depart="94.11">
        <route edges="HQC_J2_J3 PVB_J3_J1"/>
    </vehicle>
    <vehicle id="flow13.12" type="car" depart="94.94">
        <route edges="PVB_J0_J3 PVB_J3_J5"/>
    </vehicle>
    <vehicle id="flow10.66" type="motorbike" depart="95.04">
        <route edges="PVB_J6_J3 PVB_J3_J1"/>
    </vehicle>
    <vehicle id="flow14.59" type="motorbike" depart="95.05">
        <route edges="PVB_J0_J3 HQC_J3_J2"/>
    </vehicle>
    <vehicle id="flow2.14" type="motorbike" depart="96.00">
        <route edges="HQC_J4_J3 HQC_J3_J2"/>
    </vehicle>
    <vehicle id="flow10.67" type="motorbike" depart="96.48">
        <route edges="PVB_J6_J3 HQC_J3_J2"/>
    </vehicle>
    <vehicle id="flow14.60" type="motorbike" depart="96.66">
        <route edges="PVB_J0_J3 PVB_J3_J5"/>
    </vehicle>
    <vehicle id="flow10.68" type="motorbike" depart="97.92">
        <route edges="PVB_J6_J3 HQC_J3_J2"/>
    </vehicle>
    <vehicle id="flow14.61" type="motorbike" depart="98.27">
        <route edges="PVB_J0_J3 PVB_J3_J5"/>
    </vehicle>
    <vehicle id="flow1.7" type="car" depart="99.21">
        <route edges="HQC_J4_J3 PVB_J3_J1"/>
    </vehicle>
    <vehicle id="flow10.69" type="motorbike" depart="99.36">
        <route edges="PVB_J6_J3 PVB_J3_J1"/>
    </vehicle>
    <vehicle id="flow14.62" type="motorbike" depart="99.88">
        <route edges="PVB_J0_J3 PVB_J3_J5"/>
    </vehicle>
    <vehicle id="flow6.17" type="motorbike" depart="99.99">
        <route edges="HQC_J2_J3 HQC_J3_J4"/>
    </vehicle>
    <vehicle id="flow10.70" type="motorbike" depart="100.80">
        <route edges="PVB_J6_J3 PVB_J3_J1"/>
    </vehicle>
    <vehicle id="flow9.14" type="car" depart="100.80">
        <route edges="PVB_J6_J3 PVB_J3_J1"/>
    </vehicle>
    <vehicle id="flow14.63" type="motorbike" depart="101.49">
        <route edges="PVB_J0_J3 HQC_J3_J2"/>
    </vehicle>
    <vehicle id="flow10.71" type="motorbike" depart="102.24">
        <route edges="PVB_J6_J3 PVB_J3_J1"/>
    </vehicle>
    <vehicle id="flow2.15" type="motorbike" depart="102.86">
        <route edges="HQC_J4_J3 HQC_J3_J2"/>
    </vehicle>
    <vehicle id="flow13.13" type="car" depart="102.86">
        <route edges="PVB_J0_J3 PVB_J3_J5"/>
    </vehicle>
    <vehicle id="flow5.8" type="car" depart="102.86">
        <route edges="HQC_J2_J3 HQC_J3_J4"/>
    </vehicle>
    <vehicle id="flow14.64" type="motorbike" depart="103.10">
        <route edges="PVB_J0_J3 PVB_J3_J5"/>
    </vehicle>
    <vehicle id="flow10.72" type="motorbike" depart="103.68">
        <route edges="PVB_J6_J3 PVB_J3_J1"/>
    </vehicle>
    <vehicle id="flow14.65" type="motorbike" depart="104.72">
        <route edges="PVB_J0_J3 PVB_J3_J5"/>
    </vehicle>
    <vehicle id="flow10.73" type="motorbike" depart="105.12">
        <route edges="PVB_J6_J3 HQC_J3_J4"/>
    </vehicle>
    <vehicle id="flow6.18" type="motorbike" depart="105.88">
        <route edges="HQC_J2_J3 PVB_J3_J5"/>
    </vehicle>
    <vehicle id="flow14.66" type="motorbike" depart="106.33">
        <route edges="PVB_J0_J3 HQC_J3_J4"/>
    </vehicle>
    <vehicle id="flow10.74" type="motorbike" depart="106.56">
        <route edges="PVB_J6_J3 HQC_J3_J4"/>
    </vehicle>
    <vehicle id="flow14.67" type="motorbike" depart="107.94">
        <route edges="PVB_J0_J3 PVB_J3_J5"/>
    </vehicle>